163193487
  -OEChem-04052509223D

 77 81  0     1  0  0  0  0  0999 V2000
    1.9902    2.7597    0.9325 O   0  0  0  0  0  0  0  0  0  0  0  0
    2.3389    0.0940    2.3883 O   0  0  0  0  0  0  0  0  0  0  0  0
    4.1644    2.0430    0.9780 O   0  0  0  0  0  0  0  0  0  0  0  0
   -7.4590   -1.3343    1.6475 N   0  0  0  0  0  0  0  0  0  0  0  0
    0.4972    0.6564   -0.9807 C   0  0  1  0  0  0  0  0  0  0  0  0
   -0.7103    1.6379   -1.0018 C   0  0  1  0  0  0  0  0  0  0  0  0
   -2.0493    1.0460   -0.4679 C   0  0  2  0  0  0  0  0  0  0  0  0
   -2.3697   -0.3380   -1.0871 C   0  0  2  0  0  0  0  0  0  0  0  0
   -3.7595   -0.9362   -0.6230 C   0  0  2  0  0  0  0  0  0  0  0  0
    0.9004    0.6932    0.5275 C   0  0  2  0  0  0  0  0  0  0  0  0
    0.1002   -0.7485   -1.4669 C   0  0  0  0  0  0  0  0  0  0  0  0
   -0.2077    2.7989   -0.1201 C   0  0  0  0  0  0  0  0  0  0  0  0
    0.6916    2.1534    0.9330 C   0  0  2  0  0  0  0  0  0  0  0  0
   -1.1847   -1.2927   -0.8550 C   0  0  0  0  0  0  0  0  0  0  0  0
   -4.8897    0.1282   -0.8140 C   0  0  2  0  0  0  0  0  0  0  0  0
   -3.2048    2.0182   -0.7567 C   0  0  0  0  0  0  0  0  0  0  0  0
   -4.5227    1.4942   -0.2127 C   0  0  0  0  0  0  0  0  0  0  0  0
    2.3270    0.4315    0.9987 C   0  0  1  0  0  0  0  0  0  0  0  0
   -3.7257   -1.4035    0.8587 C   0  0  0  0  0  0  0  0  0  0  0  0
    1.5896    1.1801   -1.9472 C   0  0  0  0  0  0  0  0  0  0  0  0
   -6.2516   -0.3338   -0.2507 C   0  0  0  0  0  0  0  0  0  0  0  0
   -4.0787   -2.1620   -1.5252 C   0  0  0  0  0  0  0  0  0  0  0  0
   -5.0844   -1.8665    1.3929 C   0  0  0  0  0  0  0  0  0  0  0  0
   -6.1678   -0.8041    1.2061 C   0  0  2  0  0  0  0  0  0  0  0  0
    2.9677    1.7994    0.9543 C   0  0  0  0  0  0  0  0  0  0  0  0
    3.1052   -0.6174    0.2952 C   0  0  0  0  0  0  0  0  0  0  0  0
    4.3589   -0.9637    0.6235 C   0  0  0  0  0  0  0  0  0  0  0  0
    5.1489   -2.0357   -0.0922 C   0  0  1  0  0  0  0  0  0  0  0  0
    6.4493   -1.5086   -0.7619 C   0  0  0  0  0  0  0  0  0  0  0  0
    5.4320   -3.1876    0.8788 C   0  0  0  0  0  0  0  0  0  0  0  0
    7.4651   -0.9088    0.2161 C   0  0  0  0  0  0  0  0  0  0  0  0
    6.1389   -0.4926   -1.8679 C   0  0  0  0  0  0  0  0  0  0  0  0
   -0.8856    2.0013   -2.0230 H   0  0  0  0  0  0  0  0  0  0  0  0
   -1.9680    0.9318    0.6206 H   0  0  0  0  0  0  0  0  0  0  0  0
   -2.4462   -0.1833   -2.1748 H   0  0  0  0  0  0  0  0  0  0  0  0
    0.2007    0.0789    1.1067 H   0  0  0  0  0  0  0  0  0  0  0  0
    0.8882   -1.4845   -1.3041 H   0  0  0  0  0  0  0  0  0  0  0  0
   -0.0462   -0.7181   -2.5560 H   0  0  0  0  0  0  0  0  0  0  0  0
   -1.0167    3.3560    0.3592 H   0  0  0  0  0  0  0  0  0  0  0  0
    0.3517    3.5233   -0.7240 H   0  0  0  0  0  0  0  0  0  0  0  0
    0.2648    2.2514    1.9375 H   0  0  0  0  0  0  0  0  0  0  0  0
   -1.3778   -2.2663   -1.3159 H   0  0  0  0  0  0  0  0  0  0  0  0
   -1.0359   -1.4797    0.2129 H   0  0  0  0  0  0  0  0  0  0  0  0
   -5.0273    0.2867   -1.8936 H   0  0  0  0  0  0  0  0  0  0  0  0
   -3.2958    2.1836   -1.8380 H   0  0  0  0  0  0  0  0  0  0  0  0
   -3.0161    2.9981   -0.3073 H   0  0  0  0  0  0  0  0  0  0  0  0
   -4.4590    1.4437    0.8798 H   0  0  0  0  0  0  0  0  0  0  0  0
   -5.3121    2.2202   -0.4440 H   0  0  0  0  0  0  0  0  0  0  0  0
   -3.3622   -0.5960    1.5041 H   0  0  0  0  0  0  0  0  0  0  0  0
   -3.0199   -2.2336    0.9808 H   0  0  0  0  0  0  0  0  0  0  0  0
    1.9938    2.1520   -1.6528 H   0  0  0  0  0  0  0  0  0  0  0  0
    1.1777    1.3054   -2.9562 H   0  0  0  0  0  0  0  0  0  0  0  0
    2.4301    0.4884   -2.0433 H   0  0  0  0  0  0  0  0  0  0  0  0
   -6.9791    0.4848   -0.3329 H   0  0  0  0  0  0  0  0  0  0  0  0
   -6.6499   -1.1401   -0.8790 H   0  0  0  0  0  0  0  0  0  0  0  0
   -5.0830   -2.5608   -1.3604 H   0  0  0  0  0  0  0  0  0  0  0  0
   -3.3889   -2.9918   -1.3434 H   0  0  0  0  0  0  0  0  0  0  0  0
   -4.0114   -1.8950   -2.5860 H   0  0  0  0  0  0  0  0  0  0  0  0
   -4.9799   -2.1075    2.4587 H   0  0  0  0  0  0  0  0  0  0  0  0
   -5.3756   -2.8014    0.8979 H   0  0  0  0  0  0  0  0  0  0  0  0
   -5.9316    0.0529    1.8474 H   0  0  0  0  0  0  0  0  0  0  0  0
    2.6613   -1.1558   -0.5275 H   0  0  0  0  0  0  0  0  0  0  0  0
    1.7328    0.6870    2.8635 H   0  0  0  0  0  0  0  0  0  0  0  0
   -8.1702   -0.6080    1.5752 H   0  0  0  0  0  0  0  0  0  0  0  0
   -7.4065   -1.5898    2.6328 H   0  0  0  0  0  0  0  0  0  0  0  0
    4.8482   -0.4736    1.4616 H   0  0  0  0  0  0  0  0  0  0  0  0
    4.5286   -2.4571   -0.8961 H   0  0  0  0  0  0  0  0  0  0  0  0
    6.9363   -2.3661   -1.2465 H   0  0  0  0  0  0  0  0  0  0  0  0
    5.9784   -2.8544    1.7675 H   0  0  0  0  0  0  0  0  0  0  0  0
    4.4953   -3.6419    1.2222 H   0  0  0  0  0  0  0  0  0  0  0  0
    6.0198   -3.9724    0.3910 H   0  0  0  0  0  0  0  0  0  0  0  0
    7.7631   -1.6330    0.9796 H   0  0  0  0  0  0  0  0  0  0  0  0
    8.3748   -0.6090   -0.3162 H   0  0  0  0  0  0  0  0  0  0  0  0
    7.0720   -0.0197    0.7189 H   0  0  0  0  0  0  0  0  0  0  0  0
    7.0511   -0.2264   -2.4130 H   0  0  0  0  0  0  0  0  0  0  0  0
    5.7119    0.4310   -1.4634 H   0  0  0  0  0  0  0  0  0  0  0  0
    5.4301   -0.9086   -2.5917 H   0  0  0  0  0  0  0  0  0  0  0  0
  1 13  1  0  0  0  0
  1 25  1  0  0  0  0
  2 18  1  0  0  0  0
  2 63  1  0  0  0  0
  3 25  2  0  0  0  0
  4 24  1  0  0  0  0
  4 64  1  0  0  0  0
  4 65  1  0  0  0  0
  5  6  1  0  0  0  0
  5 10  1  0  0  0  0
  5 11  1  0  0  0  0
  5 20  1  0  0  0  0
  6  7  1  0  0  0  0
  6 12  1  0  0  0  0
  6 33  1  0  0  0  0
  7  8  1  0  0  0  0
  7 16  1  0  0  0  0
  7 34  1  0  0  0  0
  8  9  1  0  0  0  0
  8 14  1  0  0  0  0
  8 35  1  0  0  0  0
  9 15  1  0  0  0  0
  9 19  1  0  0  0  0
  9 22  1  0  0  0  0
 10 13  1  0  0  0  0
 10 18  1  0  0  0  0
 10 36  1  0  0  0  0
 11 14  1  0  0  0  0
 11 37  1  0  0  0  0
 11 38  1  0  0  0  0
 12 13  1  0  0  0  0
 12 39  1  0  0  0  0
 12 40  1  0  0  0  0
 13 41  1  0  0  0  0
 14 42  1  0  0  0  0
 14 43  1  0  0  0  0
 15 17  1  0  0  0  0
 15 21  1  0  0  0  0
 15 44  1  0  0  0  0
 16 17  1  0  0  0  0
 16 45  1  0  0  0  0
 16 46  1  0  0  0  0
 17 47  1  0  0  0  0
 17 48  1  0  0  0  0
 18 25  1  0  0  0  0
 18 26  1  0  0  0  0
 19 23  1  0  0  0  0
 19 49  1  0  0  0  0
 19 50  1  0  0  0  0
 20 51  1  0  0  0  0
 20 52  1  0  0  0  0
 20 53  1  0  0  0  0
 21 24  1  0  0  0  0
 21 54  1  0  0  0  0
 21 55  1  0  0  0  0
 22 56  1  0  0  0  0
 22 57  1  0  0  0  0
 22 58  1  0  0  0  0
 23 24  1  0  0  0  0
 23 59  1  0  0  0  0
 23 60  1  0  0  0  0
 24 61  1  0  0  0  0
 26 27  2  0  0  0  0
 26 62  1  0  0  0  0
 27 28  1  0  0  0  0
 27 66  1  0  0  0  0
 28 29  1  0  0  0  0
 28 30  1  0  0  0  0
 28 67  1  0  0  0  0
 29 31  1  0  0  0  0
 29 32  1  0  0  0  0
 29 68  1  0  0  0  0
 30 69  1  0  0  0  0
 30 70  1  0  0  0  0
 30 71  1  0  0  0  0
 31 72  1  0  0  0  0
 31 73  1  0  0  0  0
 31 74  1  0  0  0  0
 32 75  1  0  0  0  0
 32 76  1  0  0  0  0
 32 77  1  0  0  0  0
M  END
> <PUBCHEM_COMPOUND_CID>
163193487

> <PUBCHEM_CONFORMER_RMSD>
0.8

> <PUBCHEM_CONFORMER_DIVERSEORDER>
2
20
111
100
147
91
130
27
42
5
117
97
133
126
88
72
128
38
10
99
114
66
107
120
158
139
77
26
109
118
9
140
30
86
123
153
112
149
24
103
46
36
69
106
81
49
58
22
48
68
116
57
122
19
137
154
79
134
59
152
76
143
89
78
105
28
144
129
39
21
25
108
61
92
45
80
44
40
87
7
101
29
6
75
127
43
11
159
110
50
67
55
35
33
14
151
104
150
132
23
73
95
102
65
84
31
53
155
52
138
124
63
54
119
32
3
82
64
71
141
62
125
56
135
115
34
17
83
60
148
1
70
74
8
113
121
142
94
18
37
96
41
160
15
93
136
90
4
156
131
145
146
85
51
13
47
12
98
157
16

> <PUBCHEM_MMFF94_PARTIAL_CHARGES>
16
1 -0.43
13 0.28
18 0.48
2 -0.68
24 0.27
25 0.66
26 -0.29
27 -0.29
28 0.14
3 -0.57
4 -0.99
62 0.15
63 0.4
64 0.36
65 0.36
66 0.15

> <PUBCHEM_EFFECTIVE_ROTOR_COUNT>
5.2

> <PUBCHEM_PHARMACOPHORE_FEATURES>
12
1 2 acceptor
1 2 donor
1 3 acceptor
1 30 hydrophobe
1 4 cation
1 4 donor
3 29 31 32 hydrophobe
5 1 10 13 18 25 rings
5 5 6 10 12 13 rings
6 5 6 7 8 11 14 rings
6 7 8 9 15 16 17 rings
6 9 15 19 21 23 24 rings

> <PUBCHEM_HEAVY_ATOM_COUNT>
32

> <PUBCHEM_ATOM_DEF_STEREO_COUNT>
6

> <PUBCHEM_ATOM_UDEF_STEREO_COUNT>
5

> <PUBCHEM_BOND_DEF_STEREO_COUNT>
1

> <PUBCHEM_BOND_UDEF_STEREO_COUNT>
0

> <PUBCHEM_ISOTOPIC_ATOM_COUNT>
0

> <PUBCHEM_COMPONENT_COUNT>
1

> <PUBCHEM_CACTVS_TAUTO_COUNT>
-1

> <PUBCHEM_CONFORMER_ID>
09BA228F00000002

> <PUBCHEM_MMFF94_ENERGY>
97.1061

> <PUBCHEM_FEATURE_SELFOVERLAP>
61.469

> <PUBCHEM_SHAPE_FINGERPRINT>
10076449 9 18343028779056416670
10319926 262 18409442562444414185
10369192 42 18050831511282322760
10692045 39 16487260958329862775
10928967 22 18115007671904914883
11135609 12 18409174290059897669
11456790 92 17561094622744571627
117089 54 18052823546730722214
11796584 16 16878492549586279985
11961588 58 12540701439868075112
12035758 1 17704070673085548950
12107183 9 17988927773296422915
12166972 35 17632288017115716625
12422481 6 16200155352788110764
12633257 1 17131832092313460671
12969540 114 14707501261095414968
13009979 54 18259992561067648837
13150687 139 11602820169054137184
13673619 4 18409730655659870060
13685833 64 18412262831107326362
13690498 29 18261106335901610404
13782708 43 18408879616337644966
13911987 19 12468648187604207584
13914758 101 11743838045542879238
14341114 176 18412824720240813889
14739800 52 14834408134139282738
14767858 380 12684811117063215783
14790565 3 17691957585464289864
14856354 85 17894920620048724767
14955137 171 18409168835293709093
15064986 96 17631467794010358303
15131766 46 12677449921998719730
15289351 153 11169903988888981934
15361156 5 18335137609504335925
15475509 84 17704073975499363953
15669420 48 14129349519832117331
15721738 202 17749118811178934950
16992787 43 18270966868909354352
17349148 13 16917061205116644573
173720 79 9511457797811504412
17492 54 13695872531905605720
17492 89 18125430063231684935
17980427 23 11455587916804951098
1813 80 17603854603313975084
20567600 254 8430312433629966886
20715895 44 9367343743448908122
21033648 29 17987780982906049345
21267235 1 18411700975995837245
21859007 373 12678916588103161042
22950370 63 18411413973955333900
23522609 53 18194147173456782212
23559900 14 18334003986808951685
23569917 315 17560798883891951175
2748736 6 8502653714231633342
2838139 119 10447635886312119506
3178227 256 18272092690699501602
335352 9 18271516503883740829
34797466 226 16877948281986300388
3680242 22 18130511924560297249
394071 54 17131828768868616582
4093350 32 16702300179380472184
437795 51 18334018323989885066
437815 12 18272368659374612432
439807 62 18187928339810468402
465052 167 18343865498456445628
5104073 3 18343578521210424169
54039377 194 18269838624050770454
56633871 153 18341611564487632583
6058803 2 17414704681979841197
6371009 1 8286195046436774270
67856867 119 8285934492361455972
6823239 73 18408315601548508130
8863177 126 18408886269178800195
999808 66 18334863792375640827

> <PUBCHEM_SHAPE_MULTIPOLES>
635.96
17.22
2.9
1.71
3.85
0.46
0.01
-12.72
2.45
1.21
0.54
0.06
-0.16
1.17

> <PUBCHEM_SHAPE_SELFOVERLAP>
1349.541

> <PUBCHEM_SHAPE_VOLUME>
353.7

> <PUBCHEM_COORDINATE_TYPE>
2
5
10

$$$$
