162817168
  -OEChem-04052509203D

 62 64  0     1  0  0  0  0  0999 V2000
    4.8255   -0.7774    0.0315 O   0  0  0  0  0  0  0  0  0  0  0  0
    3.6014    1.0678   -0.7042 O   0  0  0  0  0  0  0  0  0  0  0  0
    0.0361    0.9214    0.1159 O   0  0  0  0  0  0  0  0  0  0  0  0
    5.7331    2.7628    0.0762 O   0  0  0  0  0  0  0  0  0  0  0  0
    8.2999    1.4133    0.0137 O   0  0  0  0  0  0  0  0  0  0  0  0
    8.1673   -1.1211    1.4879 O   0  0  0  0  0  0  0  0  0  0  0  0
    2.7471   -1.4883   -1.8713 O   0  0  0  0  0  0  0  0  0  0  0  0
    0.4292   -1.8260   -0.4181 O   0  0  0  0  0  0  0  0  0  0  0  0
    1.7537    2.0617    1.2120 O   0  0  0  0  0  0  0  0  0  0  0  0
   -1.7675   -0.1653   -0.9190 O   0  0  0  0  0  0  0  0  0  0  0  0
   -2.5075    1.9644   -0.4144 O   0  0  0  0  0  0  0  0  0  0  0  0
   -9.6222    1.0786    1.6384 O   0  0  0  0  0  0  0  0  0  0  0  0
  -10.2444   -1.3822    0.5058 O   0  0  0  0  0  0  0  0  0  0  0  0
    4.6385    0.6289    0.1722 C   0  0  2  0  0  0  0  0  0  0  0  0
    5.9179    1.3748   -0.2016 C   0  0  2  0  0  0  0  0  0  0  0  0
    7.1173    0.8599    0.5929 C   0  0  1  0  0  0  0  0  0  0  0  0
    7.1940   -0.6670    0.5514 C   0  0  2  0  0  0  0  0  0  0  0  0
    5.8375   -1.2858    0.9025 C   0  0  2  0  0  0  0  0  0  0  0  0
    2.3653    0.4158   -0.4135 C   0  0  2  0  0  0  0  0  0  0  0  0
    1.8992   -0.3660   -1.6446 C   0  0  2  0  0  0  0  0  0  0  0  0
    0.4631   -0.8546   -1.4688 C   0  0  2  0  0  0  0  0  0  0  0  0
    1.3392    1.4863   -0.0268 C   0  0  1  0  0  0  0  0  0  0  0  0
    5.8536   -2.8036    0.7509 C   0  0  0  0  0  0  0  0  0  0  0  0
   -0.4391    0.3192   -1.0891 C   0  0  2  0  0  0  0  0  0  0  0  0
    4.4985   -3.4069    1.0684 C   0  0  0  0  0  0  0  0  0  0  0  0
   -2.7002    0.7705   -0.5816 C   0  0  0  0  0  0  0  0  0  0  0  0
   -4.0057    0.0845   -0.4512 C   0  0  0  0  0  0  0  0  0  0  0  0
   -5.0951    0.7940   -0.1238 C   0  0  0  0  0  0  0  0  0  0  0  0
   -6.4448    0.2267    0.0445 C   0  0  0  0  0  0  0  0  0  0  0  0
   -7.4102    0.9247    0.7700 C   0  0  0  0  0  0  0  0  0  0  0  0
   -6.7573   -1.0080   -0.5241 C   0  0  0  0  0  0  0  0  0  0  0  0
   -8.6880    0.3881    0.9268 C   0  0  0  0  0  0  0  0  0  0  0  0
   -8.0352   -1.5447   -0.3672 C   0  0  0  0  0  0  0  0  0  0  0  0
   -9.0005   -0.8466    0.3582 C   0  0  0  0  0  0  0  0  0  0  0  0
    4.3429    0.8680    1.2030 H   0  0  0  0  0  0  0  0  0  0  0  0
    6.1063    1.2919   -1.2788 H   0  0  0  0  0  0  0  0  0  0  0  0
    7.0867    1.2210    1.6277 H   0  0  0  0  0  0  0  0  0  0  0  0
    7.5193   -0.9921   -0.4442 H   0  0  0  0  0  0  0  0  0  0  0  0
    5.5692   -1.0483    1.9413 H   0  0  0  0  0  0  0  0  0  0  0  0
    2.4786   -0.2783    0.4311 H   0  0  0  0  0  0  0  0  0  0  0  0
    1.9740    0.2754   -2.5315 H   0  0  0  0  0  0  0  0  0  0  0  0
    0.1030   -1.3615   -2.3700 H   0  0  0  0  0  0  0  0  0  0  0  0
    1.3171    2.2919   -0.7717 H   0  0  0  0  0  0  0  0  0  0  0  0
    6.6078   -3.2462    1.4111 H   0  0  0  0  0  0  0  0  0  0  0  0
    6.1155   -3.0758   -0.2789 H   0  0  0  0  0  0  0  0  0  0  0  0
   -0.4425    1.0635   -1.8970 H   0  0  0  0  0  0  0  0  0  0  0  0
    5.5550    2.8585    1.0274 H   0  0  0  0  0  0  0  0  0  0  0  0
    8.3663    1.0936   -0.9022 H   0  0  0  0  0  0  0  0  0  0  0  0
    7.8845   -0.8414    2.3753 H   0  0  0  0  0  0  0  0  0  0  0  0
    3.7279   -3.0698    0.3685 H   0  0  0  0  0  0  0  0  0  0  0  0
    4.1790   -3.1468    2.0827 H   0  0  0  0  0  0  0  0  0  0  0  0
    4.5490   -4.4986    1.0020 H   0  0  0  0  0  0  0  0  0  0  0  0
    2.4183   -1.9498   -2.6615 H   0  0  0  0  0  0  0  0  0  0  0  0
    0.5203   -1.3622    0.4311 H   0  0  0  0  0  0  0  0  0  0  0  0
    1.3716    2.9547    1.2536 H   0  0  0  0  0  0  0  0  0  0  0  0
   -4.0174   -0.9873   -0.6110 H   0  0  0  0  0  0  0  0  0  0  0  0
   -5.0181    1.8649    0.0500 H   0  0  0  0  0  0  0  0  0  0  0  0
   -7.1700    1.8876    1.2160 H   0  0  0  0  0  0  0  0  0  0  0  0
   -6.0448   -1.5772   -1.1138 H   0  0  0  0  0  0  0  0  0  0  0  0
   -8.2669   -2.5057   -0.8188 H   0  0  0  0  0  0  0  0  0  0  0  0
   -9.2289    1.9094    1.9563 H   0  0  0  0  0  0  0  0  0  0  0  0
  -10.2769   -2.2389    0.0465 H   0  0  0  0  0  0  0  0  0  0  0  0
  1 14  1  0  0  0  0
  1 18  1  0  0  0  0
  2 14  1  0  0  0  0
  2 19  1  0  0  0  0
  3 22  1  0  0  0  0
  3 24  1  0  0  0  0
  4 15  1  0  0  0  0
  4 47  1  0  0  0  0
  5 16  1  0  0  0  0
  5 48  1  0  0  0  0
  6 17  1  0  0  0  0
  6 49  1  0  0  0  0
  7 20  1  0  0  0  0
  7 53  1  0  0  0  0
  8 21  1  0  0  0  0
  8 54  1  0  0  0  0
  9 22  1  0  0  0  0
  9 55  1  0  0  0  0
 10 24  1  0  0  0  0
 10 26  1  0  0  0  0
 11 26  2  0  0  0  0
 12 32  1  0  0  0  0
 12 61  1  0  0  0  0
 13 34  1  0  0  0  0
 13 62  1  0  0  0  0
 14 15  1  0  0  0  0
 14 35  1  0  0  0  0
 15 16  1  0  0  0  0
 15 36  1  0  0  0  0
 16 17  1  0  0  0  0
 16 37  1  0  0  0  0
 17 18  1  0  0  0  0
 17 38  1  0  0  0  0
 18 23  1  0  0  0  0
 18 39  1  0  0  0  0
 19 20  1  0  0  0  0
 19 22  1  0  0  0  0
 19 40  1  0  0  0  0
 20 21  1  0  0  0  0
 20 41  1  0  0  0  0
 21 24  1  0  0  0  0
 21 42  1  0  0  0  0
 22 43  1  0  0  0  0
 23 25  1  0  0  0  0
 23 44  1  0  0  0  0
 23 45  1  0  0  0  0
 24 46  1  0  0  0  0
 25 50  1  0  0  0  0
 25 51  1  0  0  0  0
 25 52  1  0  0  0  0
 26 27  1  0  0  0  0
 27 28  2  0  0  0  0
 27 56  1  0  0  0  0
 28 29  1  0  0  0  0
 28 57  1  0  0  0  0
 29 30  2  0  0  0  0
 29 31  1  0  0  0  0
 30 32  1  0  0  0  0
 30 58  1  0  0  0  0
 31 33  2  0  0  0  0
 31 59  1  0  0  0  0
 32 34  2  0  0  0  0
 33 34  1  0  0  0  0
 33 60  1  0  0  0  0
M  END
> <PUBCHEM_COMPOUND_CID>
162817168

> <PUBCHEM_CONFORMER_RMSD>
1.4

> <PUBCHEM_CONFORMER_DIVERSEORDER>
1
73
33
43
67
11
81
106
99
104
89
34
59
108
109
25
71
56
92
60
75
6
70
90
38
30
102
103
88
53
119
10
105
72
37
117
22
17
50
107
115
47
91
51
74
100
96
80
87
5
18
14
57
62
12
61
27
66
19
116
58
65
86
114
41
9
118
8
20
21
113
120
84
24
94
101
112
16
69
29
35
15
110
98
3
26
78
2
45
55
36
93
68
77
32
40
23
79
83
76
111
64
54
48
49
28
4
95
63
13
85
7
44
39
31
97
42
82
46
52

> <PUBCHEM_MMFF94_PARTIAL_CHARGES>
45
1 -0.56
10 -0.43
11 -0.57
12 -0.53
13 -0.53
14 0.56
15 0.28
16 0.28
17 0.28
18 0.28
19 0.28
2 -0.56
20 0.28
21 0.28
22 0.56
24 0.56
26 0.71
27 -0.14
28 -0.18
29 0.03
3 -0.56
30 -0.15
31 -0.15
32 0.08
33 -0.15
34 0.08
4 -0.68
47 0.4
48 0.4
49 0.4
5 -0.68
53 0.4
54 0.4
55 0.4
56 0.15
57 0.15
58 0.15
59 0.15
6 -0.68
60 0.15
61 0.45
62 0.45
7 -0.68
8 -0.68
9 -0.68

> <PUBCHEM_EFFECTIVE_ROTOR_COUNT>
9.4

> <PUBCHEM_PHARMACOPHORE_FEATURES>
22
1 1 acceptor
1 11 acceptor
1 12 donor
1 13 donor
1 2 acceptor
1 25 hydrophobe
1 3 acceptor
1 4 acceptor
1 4 donor
1 5 acceptor
1 5 donor
1 6 acceptor
1 6 donor
1 7 acceptor
1 7 donor
1 8 acceptor
1 8 donor
1 9 acceptor
1 9 donor
6 1 14 15 16 17 18 rings
6 29 30 31 32 33 34 rings
6 3 19 20 21 22 24 rings

> <PUBCHEM_HEAVY_ATOM_COUNT>
34

> <PUBCHEM_ATOM_DEF_STEREO_COUNT>
8

> <PUBCHEM_ATOM_UDEF_STEREO_COUNT>
2

> <PUBCHEM_BOND_DEF_STEREO_COUNT>
1

> <PUBCHEM_BOND_UDEF_STEREO_COUNT>
0

> <PUBCHEM_ISOTOPIC_ATOM_COUNT>
0

> <PUBCHEM_COMPONENT_COUNT>
1

> <PUBCHEM_CACTVS_TAUTO_COUNT>
-1

> <PUBCHEM_CONFORMER_ID>
09B4649000000001

> <PUBCHEM_MMFF94_ENERGY>
93.5193

> <PUBCHEM_FEATURE_SELFOVERLAP>
111.79

> <PUBCHEM_SHAPE_FINGERPRINT>
10 15 18060701697760824551
10029044 110 12966833664093446274
10100884 174 18125717045211713103
10299344 5 18412825802656857921
10625338 86 13830139365205685091
106641 1 18409165536642384892
11135926 11 18060410305783931527
11456790 92 18060135427244042920
11534866 41 17458340819842810450
11607047 141 14548466774310009014
11638347 137 18114180826333219698
11966995 178 17917438627292100004
12144603 126 18343303708044266276
12522641 24 18410006645973660112
13560911 43 17918276450515062041
13617811 41 14490471963597371734
13668630 136 16008752416507535643
13782708 43 18114742625261955175
13947934 56 18114178598390191309
14040222 383 17917425484724400855
14117953 113 8214146291862787896
14118638 360 15141228907207654113
14150022 121 17988649554554406345
14294032 229 16988551416815806757
14849402 71 18272368719642097265
15247644 1 16588024615310782283
15328684 2 17774445962793704187
15392192 104 18113904892339081054
15461852 350 11241975889426341985
15510794 2 17967527966227416175
15840311 113 18339645637723848484
15849732 13 14707207738550673387
17324776 126 16304549408107181346
1754911 235 10879993550016116675
1818759 1 16009033878293571473
18608769 82 18202282524652069829
19301679 30 18058734577037991894
19841028 212 18261671463841768666
20105231 36 18339928109438939862
2026 5 17386561337004795578
20982279 24 17750250126808040739
21033648 29 14764045892895616366
21130935 74 18265050241155559787
21362857 166 13335006155008703570
22149856 69 17418099775758592104
232437 2 18335138692026043600
24204213 200 17917438592458803799
24771293 8 16557884841346405464
24893992 56 17131547341062621843
249057 3 14490194938248808841
3178227 256 18202844365860253069
3633792 109 10303812098961204806
3711267 37 15267068064461505187
4093350 32 15698007305455256982
5758199 1 16774080670132925655
58902169 19 8430308030935113408
5937810 71 11311791549233181787
59521120 56 16558458811653061783
68570916 9 18268992154114104525
9663363 56 13479129116964892836
9937071 3 17530972384925462435
9962374 69 18041558156728607141

> <PUBCHEM_SHAPE_MULTIPOLES>
623.4
32.7
2.42
1.25
52.41
1.13
-0.16
5.49
13.72
-4.35
0.61
-0.09
0.23
-1.55

> <PUBCHEM_SHAPE_SELFOVERLAP>
1311.427

> <PUBCHEM_SHAPE_VOLUME>
345.6

> <PUBCHEM_COORDINATE_TYPE>
2
5
10

$$$$
