15895373
  -OEChem-04052509173D

 48 50  0     1  0  0  0  0  0999 V2000
   -0.7305   -0.0788   -0.1251 O   0  0  0  0  0  0  0  0  0  0  0  0
    1.0215   -3.5731    1.1200 O   0  0  0  0  0  0  0  0  0  0  0  0
    4.7878   -0.3440   -0.0295 O   0  0  0  0  0  0  0  0  0  0  0  0
    3.3637   -2.5502    0.6988 O   0  0  0  0  0  0  0  0  0  0  0  0
    3.5023    1.9730   -0.7621 O   0  0  0  0  0  0  0  0  0  0  0  0
   -1.4004   -1.3375   -0.2973 C   0  0  1  0  0  0  0  0  0  0  0  0
   -1.0017   -2.3248    0.7978 C   0  0  0  0  0  0  0  0  0  0  0  0
    0.6343   -0.2019   -0.0825 C   0  0  0  0  0  0  0  0  0  0  0  0
    1.2908   -1.3716    0.3114 C   0  0  0  0  0  0  0  0  0  0  0  0
    1.3772    0.9272   -0.4297 C   0  0  0  0  0  0  0  0  0  0  0  0
    0.4901   -2.5313    0.7546 C   0  0  0  0  0  0  0  0  0  0  0  0
   -2.8941   -1.0897   -0.2912 C   0  0  0  0  0  0  0  0  0  0  0  0
    2.6867   -1.4266    0.3266 C   0  0  0  0  0  0  0  0  0  0  0  0
    0.6875    2.1927   -0.8313 C   0  0  0  0  0  0  0  0  0  0  0  0
    2.7713    0.8751   -0.4136 C   0  0  0  0  0  0  0  0  0  0  0  0
    3.4242   -0.3006   -0.0411 C   0  0  0  0  0  0  0  0  0  0  0  0
   -3.7371   -1.8927   -1.0592 C   0  0  0  0  0  0  0  0  0  0  0  0
   -3.4264   -0.0583    0.4820 C   0  0  0  0  0  0  0  0  0  0  0  0
    0.4075    3.1016    0.3383 C   0  0  0  0  0  0  0  0  0  0  0  0
   -5.1131   -1.6642   -1.0540 C   0  0  0  0  0  0  0  0  0  0  0  0
   -4.8025    0.1702    0.4874 C   0  0  0  0  0  0  0  0  0  0  0  0
   -0.6203    3.9573    0.4967 C   0  0  0  0  0  0  0  0  0  0  0  0
   -5.6457   -0.6327   -0.2807 C   0  0  0  0  0  0  0  0  0  0  0  0
   -0.8395    4.8380    1.6941 C   0  0  0  0  0  0  0  0  0  0  0  0
   -1.6648    4.1005   -0.5783 C   0  0  0  0  0  0  0  0  0  0  0  0
    5.4313   -0.7576   -1.2322 C   0  0  0  0  0  0  0  0  0  0  0  0
   -1.1195   -1.7239   -1.2884 H   0  0  0  0  0  0  0  0  0  0  0  0
   -1.4968   -3.2900    0.6438 H   0  0  0  0  0  0  0  0  0  0  0  0
   -1.2567   -1.9505    1.7963 H   0  0  0  0  0  0  0  0  0  0  0  0
    1.3047    2.7420   -1.5535 H   0  0  0  0  0  0  0  0  0  0  0  0
   -0.2255    1.9422   -1.3819 H   0  0  0  0  0  0  0  0  0  0  0  0
   -3.3341   -2.7005   -1.6642 H   0  0  0  0  0  0  0  0  0  0  0  0
   -2.7930    0.5740    1.0982 H   0  0  0  0  0  0  0  0  0  0  0  0
    1.1430    3.0692    1.1424 H   0  0  0  0  0  0  0  0  0  0  0  0
   -5.7698   -2.2897   -1.6514 H   0  0  0  0  0  0  0  0  0  0  0  0
   -5.2177    0.9716    1.0915 H   0  0  0  0  0  0  0  0  0  0  0  0
    4.3173   -2.3596    0.7001 H   0  0  0  0  0  0  0  0  0  0  0  0
    4.4460    1.7693   -0.6439 H   0  0  0  0  0  0  0  0  0  0  0  0
   -6.7172   -0.4552   -0.2759 H   0  0  0  0  0  0  0  0  0  0  0  0
   -0.0655    4.6853    2.4534 H   0  0  0  0  0  0  0  0  0  0  0  0
   -0.8192    5.8930    1.4031 H   0  0  0  0  0  0  0  0  0  0  0  0
   -1.8080    4.6192    2.1553 H   0  0  0  0  0  0  0  0  0  0  0  0
   -1.3630    3.7062   -1.5512 H   0  0  0  0  0  0  0  0  0  0  0  0
   -2.5886    3.5987   -0.2723 H   0  0  0  0  0  0  0  0  0  0  0  0
   -1.8919    5.1605   -0.7403 H   0  0  0  0  0  0  0  0  0  0  0  0
    6.5116   -0.7459   -1.0637 H   0  0  0  0  0  0  0  0  0  0  0  0
    5.1987   -0.0702   -2.0517 H   0  0  0  0  0  0  0  0  0  0  0  0
    5.1315   -1.7749   -1.5030 H   0  0  0  0  0  0  0  0  0  0  0  0
  1  6  1  0  0  0  0
  1  8  1  0  0  0  0
  2 11  2  0  0  0  0
  3 16  1  0  0  0  0
  3 26  1  0  0  0  0
  4 13  1  0  0  0  0
  4 37  1  0  0  0  0
  5 15  1  0  0  0  0
  5 38  1  0  0  0  0
  6  7  1  0  0  0  0
  6 12  1  0  0  0  0
  6 27  1  0  0  0  0
  7 11  1  0  0  0  0
  7 28  1  0  0  0  0
  7 29  1  0  0  0  0
  8  9  2  0  0  0  0
  8 10  1  0  0  0  0
  9 11  1  0  0  0  0
  9 13  1  0  0  0  0
 10 14  1  0  0  0  0
 10 15  2  0  0  0  0
 12 17  2  0  0  0  0
 12 18  1  0  0  0  0
 13 16  2  0  0  0  0
 14 19  1  0  0  0  0
 14 30  1  0  0  0  0
 14 31  1  0  0  0  0
 15 16  1  0  0  0  0
 17 20  1  0  0  0  0
 17 32  1  0  0  0  0
 18 21  2  0  0  0  0
 18 33  1  0  0  0  0
 19 22  2  0  0  0  0
 19 34  1  0  0  0  0
 20 23  2  0  0  0  0
 20 35  1  0  0  0  0
 21 23  1  0  0  0  0
 21 36  1  0  0  0  0
 22 24  1  0  0  0  0
 22 25  1  0  0  0  0
 23 39  1  0  0  0  0
 24 40  1  0  0  0  0
 24 41  1  0  0  0  0
 24 42  1  0  0  0  0
 25 43  1  0  0  0  0
 25 44  1  0  0  0  0
 25 45  1  0  0  0  0
 26 46  1  0  0  0  0
 26 47  1  0  0  0  0
 26 48  1  0  0  0  0
M  END
> <PUBCHEM_COMPOUND_CID>
15895373

> <PUBCHEM_CONFORMER_RMSD>
0.8

> <PUBCHEM_CONFORMER_DIVERSEORDER>
1
21
3
18
2
19
7
20
8
15
5
6
11
14
4
16
10
17
9
13
12

> <PUBCHEM_MMFF94_PARTIAL_CHARGES>
34
1 -0.36
10 -0.14
11 0.42
12 -0.14
13 0.08
14 0.28
15 0.08
16 0.08
17 -0.15
18 -0.15
19 -0.29
2 -0.57
20 -0.15
21 -0.15
22 -0.28
23 -0.15
24 0.14
25 0.14
26 0.28
3 -0.36
32 0.15
33 0.15
34 0.15
35 0.15
36 0.15
37 0.45
38 0.45
39 0.15
4 -0.53
5 -0.53
6 0.42
7 0.06
8 0.08
9 0.09

> <PUBCHEM_EFFECTIVE_ROTOR_COUNT>
4.6

> <PUBCHEM_PHARMACOPHORE_FEATURES>
9
1 1 acceptor
1 2 acceptor
1 3 acceptor
1 4 donor
1 5 donor
3 22 24 25 hydrophobe
6 1 6 7 8 9 11 rings
6 12 17 18 20 21 23 rings
6 8 9 10 13 15 16 rings

> <PUBCHEM_HEAVY_ATOM_COUNT>
26

> <PUBCHEM_ATOM_DEF_STEREO_COUNT>
1

> <PUBCHEM_ATOM_UDEF_STEREO_COUNT>
0

> <PUBCHEM_BOND_DEF_STEREO_COUNT>
0

> <PUBCHEM_BOND_UDEF_STEREO_COUNT>
0

> <PUBCHEM_ISOTOPIC_ATOM_COUNT>
0

> <PUBCHEM_COMPONENT_COUNT>
1

> <PUBCHEM_CACTVS_TAUTO_COUNT>
21

> <PUBCHEM_CONFORMER_ID>
00F28B4D00000001

> <PUBCHEM_MMFF94_ENERGY>
81.078

> <PUBCHEM_FEATURE_SELFOVERLAP>
45.701

> <PUBCHEM_SHAPE_FINGERPRINT>
104564 63 18338803290866225692
10906281 52 18265350545949007926
1100329 8 18263363749622536626
11513181 2 17626380122275601797
11578080 2 17771313445111855944
11646440 116 18410299141657097499
12156800 1 17902758948138181217
12236239 1 18202002144369897127
12293681 160 18047773747611464828
12553582 1 18410283718682855071
12788726 201 18409732816249634986
12954195 1 18126296250902887468
13140716 1 18190458454000631458
13540713 5 17972040241604770010
138480 1 14953218620548328745
13965767 371 17554640325726738249
14178342 30 18120921821029036312
14466204 15 18050276261207809296
14681490 219 18411136935199870375
14790565 3 18334305274633394108
15439362 3 17979069719867923637
18335252 114 18339066131029469909
18681886 176 18200584925521761983
20642791 13 18340494366141976588
20775438 99 17191761184440548055
21033648 29 17096348666490283591
21041028 32 18337666404496298079
21197605 99 17618240412264099553
21285901 2 17988377987427950326
21344244 78 18192405521394825275
21641784 216 17968673626604048956
221357 26 18335692863082214679
23558518 356 18193568757224985228
23559900 14 18125712633567077771
244849 19 17201337578984221794
25147074 1 17897733059677145026
283562 15 18409450246140744200
335352 9 18261111907276254310
345986 75 18262220132521709939
3886686 26 17400042741562847352
463206 1 18337954601228864567
474 4 18261671571220945691
58260988 647 13985484895996144976
6004065 56 18125990809417996534
653340 110 18268984302597876480
7164475 11 18267582403881676782
84936 182 17837490018252666249
9981440 41 16901851909766992073

> <PUBCHEM_SHAPE_MULTIPOLES>
505.72
9.42
5.27
1.09
3.59
7.5
-0.07
-5.55
2.94
0.64
-1.97
0.04
0.18
-1.2

> <PUBCHEM_SHAPE_SELFOVERLAP>
1093.996

> <PUBCHEM_SHAPE_VOLUME>
276.7

> <PUBCHEM_COORDINATE_TYPE>
2
5
10

$$$$
