162817245
  -OEChem-04052509253D

106109  0     1  0  0  0  0  0999 V2000
   -4.1518    1.0437   -0.1630 O   0  0  0  0  0  0  0  0  0  0  0  0
   -4.5561   -0.1886    1.7492 O   0  0  0  0  0  0  0  0  0  0  0  0
    3.9501    1.5888   -0.6103 C   0  0  1  0  0  0  0  0  0  0  0  0
    4.4059    0.5262    0.4433 C   0  0  2  0  0  0  0  0  0  0  0  0
    0.1347    0.6775   -0.7988 C   0  0  2  0  0  0  0  0  0  0  0  0
    1.5890    0.5860   -0.1716 C   0  0  2  0  0  0  0  0  0  0  0  0
    2.4470    1.8078   -0.5218 C   0  0  0  0  0  0  0  0  0  0  0  0
   -0.4604    2.0537   -0.3099 C   0  0  2  0  0  0  0  0  0  0  0  0
    5.9511    0.5847    0.2807 C   0  0  1  0  0  0  0  0  0  0  0  0
    3.7739   -0.8419    0.1260 C   0  0  0  0  0  0  0  0  0  0  0  0
    2.3181   -0.7651   -0.3926 C   0  0  0  0  0  0  0  0  0  0  0  0
    4.8954    2.7631   -0.2680 C   0  0  0  0  0  0  0  0  0  0  0  0
   -2.0174    2.2596   -0.4622 C   0  0  0  0  0  0  0  0  0  0  0  0
    6.2374    2.0980    0.1135 C   0  0  0  0  0  0  0  0  0  0  0  0
   -0.7349   -0.4829   -0.2535 C   0  0  0  0  0  0  0  0  0  0  0  0
    0.3946    3.2417   -0.8106 C   0  0  0  0  0  0  0  0  0  0  0  0
    1.8757    2.9970   -0.7845 C   0  0  0  0  0  0  0  0  0  0  0  0
    4.2418    1.2106   -2.0968 C   0  0  0  0  0  0  0  0  0  0  0  0
   -2.7476    0.9980    0.0872 C   0  0  2  0  0  0  0  0  0  0  0  0
    4.0545    0.9101    1.9200 C   0  0  0  0  0  0  0  0  0  0  0  0
   -2.2252   -0.3054   -0.5088 C   0  0  0  0  0  0  0  0  0  0  0  0
    0.2157    0.5578   -2.3401 C   0  0  0  0  0  0  0  0  0  0  0  0
    6.7653   -0.0693    1.3504 C   0  0  0  0  0  0  0  0  0  0  0  0
   -2.4877    2.5812   -1.8974 C   0  0  0  0  0  0  0  0  0  0  0  0
   -2.4465    3.4780    0.4025 C   0  0  0  0  0  0  0  0  0  0  0  0
    7.1072   -1.5290    1.1611 C   0  0  0  0  0  0  0  0  0  0  0  0
    7.1478    0.6038    2.4468 C   0  0  0  0  0  0  0  0  0  0  0  0
    8.4033   -1.7859    0.3802 C   0  0  0  0  0  0  0  0  0  0  0  0
   -4.9340    0.4069    0.7527 C   0  0  0  0  0  0  0  0  0  0  0  0
    8.7261   -3.2772    0.2278 C   0  0  0  0  0  0  0  0  0  0  0  0
    9.9911   -3.5456   -0.6093 C   0  0  0  0  0  0  0  0  0  0  0  0
   -6.3430    0.5611    0.3285 C   0  0  0  0  0  0  0  0  0  0  0  0
   10.2028   -5.0543   -0.7599 C   0  0  0  0  0  0  0  0  0  0  0  0
   11.2402   -2.9078    0.0007 C   0  0  0  0  0  0  0  0  0  0  0  0
   -7.3232    0.0209    1.0648 C   0  0  0  0  0  0  0  0  0  0  0  0
   -8.7199    0.1337    0.7076 C   0  0  0  0  0  0  0  0  0  0  0  0
   -9.7100   -0.4026    1.4365 C   0  0  0  0  0  0  0  0  0  0  0  0
  -11.1631   -0.2927    1.0728 C   0  0  0  0  0  0  0  0  0  0  0  0
  -11.8044   -1.6464    0.7495 C   0  0  0  0  0  0  0  0  0  0  0  0
  -11.1436   -2.4323   -0.3893 C   0  0  0  0  0  0  0  0  0  0  0  0
  -11.8699   -3.7339   -0.7306 C   0  0  0  0  0  0  0  0  0  0  0  0
  -11.2300   -4.4291   -1.9228 C   0  0  0  0  0  0  0  0  0  0  0  0
    1.4299    0.6347    0.9134 H   0  0  0  0  0  0  0  0  0  0  0  0
   -0.3074    2.0430    0.7834 H   0  0  0  0  0  0  0  0  0  0  0  0
    6.2373    0.1036   -0.6642 H   0  0  0  0  0  0  0  0  0  0  0  0
    3.8038   -1.4892    1.0117 H   0  0  0  0  0  0  0  0  0  0  0  0
    4.3668   -1.3678   -0.6333 H   0  0  0  0  0  0  0  0  0  0  0  0
    2.3258   -1.0230   -1.4560 H   0  0  0  0  0  0  0  0  0  0  0  0
    1.7535   -1.5714    0.0912 H   0  0  0  0  0  0  0  0  0  0  0  0
    4.5164    3.3466    0.5797 H   0  0  0  0  0  0  0  0  0  0  0  0
    5.0282    3.4649   -1.0994 H   0  0  0  0  0  0  0  0  0  0  0  0
    6.9581    2.2335   -0.7035 H   0  0  0  0  0  0  0  0  0  0  0  0
    6.6589    2.6310    0.9666 H   0  0  0  0  0  0  0  0  0  0  0  0
   -0.5834   -0.5784    0.8300 H   0  0  0  0  0  0  0  0  0  0  0  0
   -0.4199   -1.4371   -0.6930 H   0  0  0  0  0  0  0  0  0  0  0  0
    0.1937    4.1250   -0.1944 H   0  0  0  0  0  0  0  0  0  0  0  0
    0.1320    3.5038   -1.8400 H   0  0  0  0  0  0  0  0  0  0  0  0
    2.4966    3.8464   -1.0562 H   0  0  0  0  0  0  0  0  0  0  0  0
    3.7517    0.2875   -2.4132 H   0  0  0  0  0  0  0  0  0  0  0  0
    5.3088    1.0934   -2.3088 H   0  0  0  0  0  0  0  0  0  0  0  0
    3.8869    2.0020   -2.7699 H   0  0  0  0  0  0  0  0  0  0  0  0
   -2.5670    0.9738    1.1719 H   0  0  0  0  0  0  0  0  0  0  0  0
    4.5427    1.8317    2.2503 H   0  0  0  0  0  0  0  0  0  0  0  0
    4.3462    0.1140    2.6147 H   0  0  0  0  0  0  0  0  0  0  0  0
    2.9890    1.0677    2.0846 H   0  0  0  0  0  0  0  0  0  0  0  0
   -2.7587   -1.1578   -0.0699 H   0  0  0  0  0  0  0  0  0  0  0  0
   -2.4501   -0.3590   -1.5799 H   0  0  0  0  0  0  0  0  0  0  0  0
    0.8140    1.3504   -2.7975 H   0  0  0  0  0  0  0  0  0  0  0  0
   -0.7639    0.5787   -2.8150 H   0  0  0  0  0  0  0  0  0  0  0  0
    0.6618   -0.3950   -2.6423 H   0  0  0  0  0  0  0  0  0  0  0  0
   -1.9493    3.4298   -2.3283 H   0  0  0  0  0  0  0  0  0  0  0  0
   -2.3912    1.7367   -2.5784 H   0  0  0  0  0  0  0  0  0  0  0  0
   -3.5496    2.8572   -1.9074 H   0  0  0  0  0  0  0  0  0  0  0  0
   -2.0370    4.4162    0.0140 H   0  0  0  0  0  0  0  0  0  0  0  0
   -2.1124    3.3673    1.4401 H   0  0  0  0  0  0  0  0  0  0  0  0
   -3.5370    3.5876    0.4211 H   0  0  0  0  0  0  0  0  0  0  0  0
    7.1965   -2.0071    2.1462 H   0  0  0  0  0  0  0  0  0  0  0  0
    6.2760   -2.0455    0.6689 H   0  0  0  0  0  0  0  0  0  0  0  0
    7.7335    0.1001    3.2112 H   0  0  0  0  0  0  0  0  0  0  0  0
    6.8955    1.6312    2.6682 H   0  0  0  0  0  0  0  0  0  0  0  0
    8.3262   -1.3300   -0.6146 H   0  0  0  0  0  0  0  0  0  0  0  0
    9.2237   -1.2786    0.9005 H   0  0  0  0  0  0  0  0  0  0  0  0
    8.8398   -3.7239    1.2238 H   0  0  0  0  0  0  0  0  0  0  0  0
    7.8714   -3.7770   -0.2456 H   0  0  0  0  0  0  0  0  0  0  0  0
    9.8452   -3.1236   -1.6117 H   0  0  0  0  0  0  0  0  0  0  0  0
   -6.5488    1.1159   -0.5815 H   0  0  0  0  0  0  0  0  0  0  0  0
   10.3650   -5.5323    0.2123 H   0  0  0  0  0  0  0  0  0  0  0  0
   11.0731   -5.2645   -1.3906 H   0  0  0  0  0  0  0  0  0  0  0  0
    9.3315   -5.5245   -1.2282 H   0  0  0  0  0  0  0  0  0  0  0  0
   11.3787   -3.2206    1.0411 H   0  0  0  0  0  0  0  0  0  0  0  0
   11.1856   -1.8155   -0.0254 H   0  0  0  0  0  0  0  0  0  0  0  0
   12.1361   -3.1963   -0.5601 H   0  0  0  0  0  0  0  0  0  0  0  0
   -7.0918   -0.5305    1.9727 H   0  0  0  0  0  0  0  0  0  0  0  0
   -8.9597    0.6807   -0.2008 H   0  0  0  0  0  0  0  0  0  0  0  0
   -9.4795   -0.9516    2.3469 H   0  0  0  0  0  0  0  0  0  0  0  0
  -11.6982    0.1663    1.9126 H   0  0  0  0  0  0  0  0  0  0  0  0
  -11.2964    0.3781    0.2150 H   0  0  0  0  0  0  0  0  0  0  0  0
  -12.8583   -1.4726    0.4982 H   0  0  0  0  0  0  0  0  0  0  0  0
  -11.8023   -2.2687    1.6539 H   0  0  0  0  0  0  0  0  0  0  0  0
  -10.1059   -2.6680   -0.1250 H   0  0  0  0  0  0  0  0  0  0  0  0
  -11.1072   -1.7948   -1.2816 H   0  0  0  0  0  0  0  0  0  0  0  0
  -11.8542   -4.4053    0.1356 H   0  0  0  0  0  0  0  0  0  0  0  0
  -12.9208   -3.5238   -0.9604 H   0  0  0  0  0  0  0  0  0  0  0  0
  -11.2639   -3.7930   -2.8131 H   0  0  0  0  0  0  0  0  0  0  0  0
  -10.1839   -4.6773   -1.7168 H   0  0  0  0  0  0  0  0  0  0  0  0
  -11.7617   -5.3585   -2.1492 H   0  0  0  0  0  0  0  0  0  0  0  0
  1 19  1  0  0  0  0
  1 29  1  0  0  0  0
  2 29  2  0  0  0  0
  3  4  1  0  0  0  0
  3  7  1  0  0  0  0
  3 12  1  0  0  0  0
  3 18  1  0  0  0  0
  4  9  1  0  0  0  0
  4 10  1  0  0  0  0
  4 20  1  0  0  0  0
  5  6  1  0  0  0  0
  5  8  1  0  0  0  0
  5 15  1  0  0  0  0
  5 22  1  0  0  0  0
  6  7  1  0  0  0  0
  6 11  1  0  0  0  0
  6 43  1  0  0  0  0
  7 17  2  0  0  0  0
  8 13  1  0  0  0  0
  8 16  1  0  0  0  0
  8 44  1  0  0  0  0
  9 14  1  0  0  0  0
  9 23  1  0  0  0  0
  9 45  1  0  0  0  0
 10 11  1  0  0  0  0
 10 46  1  0  0  0  0
 10 47  1  0  0  0  0
 11 48  1  0  0  0  0
 11 49  1  0  0  0  0
 12 14  1  0  0  0  0
 12 50  1  0  0  0  0
 12 51  1  0  0  0  0
 13 19  1  0  0  0  0
 13 24  1  0  0  0  0
 13 25  1  0  0  0  0
 14 52  1  0  0  0  0
 14 53  1  0  0  0  0
 15 21  1  0  0  0  0
 15 54  1  0  0  0  0
 15 55  1  0  0  0  0
 16 17  1  0  0  0  0
 16 56  1  0  0  0  0
 16 57  1  0  0  0  0
 17 58  1  0  0  0  0
 18 59  1  0  0  0  0
 18 60  1  0  0  0  0
 18 61  1  0  0  0  0
 19 21  1  0  0  0  0
 19 62  1  0  0  0  0
 20 63  1  0  0  0  0
 20 64  1  0  0  0  0
 20 65  1  0  0  0  0
 21 66  1  0  0  0  0
 21 67  1  0  0  0  0
 22 68  1  0  0  0  0
 22 69  1  0  0  0  0
 22 70  1  0  0  0  0
 23 26  1  0  0  0  0
 23 27  2  0  0  0  0
 24 71  1  0  0  0  0
 24 72  1  0  0  0  0
 24 73  1  0  0  0  0
 25 74  1  0  0  0  0
 25 75  1  0  0  0  0
 25 76  1  0  0  0  0
 26 28  1  0  0  0  0
 26 77  1  0  0  0  0
 26 78  1  0  0  0  0
 27 79  1  0  0  0  0
 27 80  1  0  0  0  0
 28 30  1  0  0  0  0
 28 81  1  0  0  0  0
 28 82  1  0  0  0  0
 29 32  1  0  0  0  0
 30 31  1  0  0  0  0
 30 83  1  0  0  0  0
 30 84  1  0  0  0  0
 31 33  1  0  0  0  0
 31 34  1  0  0  0  0
 31 85  1  0  0  0  0
 32 35  2  0  0  0  0
 32 86  1  0  0  0  0
 33 87  1  0  0  0  0
 33 88  1  0  0  0  0
 33 89  1  0  0  0  0
 34 90  1  0  0  0  0
 34 91  1  0  0  0  0
 34 92  1  0  0  0  0
 35 36  1  0  0  0  0
 35 93  1  0  0  0  0
 36 37  2  0  0  0  0
 36 94  1  0  0  0  0
 37 38  1  0  0  0  0
 37 95  1  0  0  0  0
 38 39  1  0  0  0  0
 38 96  1  0  0  0  0
 38 97  1  0  0  0  0
 39 40  1  0  0  0  0
 39 98  1  0  0  0  0
 39 99  1  0  0  0  0
 40 41  1  0  0  0  0
 40100  1  0  0  0  0
 40101  1  0  0  0  0
 41 42  1  0  0  0  0
 41102  1  0  0  0  0
 41103  1  0  0  0  0
 42104  1  0  0  0  0
 42105  1  0  0  0  0
 42106  1  0  0  0  0
M  END
> <PUBCHEM_COMPOUND_CID>
162817245

> <PUBCHEM_CONFORMER_RMSD>
1.4

> <PUBCHEM_CONFORMER_DIVERSEORDER>
2
28
30
32
29
27
52
18
51
46
20
34
33
39
26
35
49
19
37
1
47
56
24
6
50
25
53
42
11
7
40
14
12
23
38
55
43
31
41
54
45
36
48
15
10
8
21
17
16
5
9
44
13
3
22
4

> <PUBCHEM_MMFF94_PARTIAL_CHARGES>
25
1 -0.43
16 0.14
17 -0.29
19 0.28
2 -0.57
23 -0.28
26 0.14
27 -0.3
29 0.71
3 0.14
32 -0.14
35 -0.15
36 -0.15
37 -0.29
38 0.14
58 0.15
6 0.14
7 -0.28
79 0.15
80 0.15
86 0.15
9 0.14
93 0.15
94 0.15
95 0.15

> <PUBCHEM_EFFECTIVE_ROTOR_COUNT>
15

> <PUBCHEM_PHARMACOPHORE_FEATURES>
11
1 2 acceptor
1 27 hydrophobe
1 42 hydrophobe
3 13 24 25 hydrophobe
3 31 33 34 hydrophobe
5 23 26 28 30 31 hydrophobe
5 3 4 9 12 14 rings
5 37 38 39 40 41 hydrophobe
6 3 4 6 7 10 11 rings
6 5 6 7 8 16 17 rings
6 5 8 13 15 19 21 rings

> <PUBCHEM_HEAVY_ATOM_COUNT>
42

> <PUBCHEM_ATOM_DEF_STEREO_COUNT>
6

> <PUBCHEM_ATOM_UDEF_STEREO_COUNT>
1

> <PUBCHEM_BOND_DEF_STEREO_COUNT>
2

> <PUBCHEM_BOND_UDEF_STEREO_COUNT>
0

> <PUBCHEM_ISOTOPIC_ATOM_COUNT>
0

> <PUBCHEM_COMPONENT_COUNT>
1

> <PUBCHEM_CACTVS_TAUTO_COUNT>
-1

> <PUBCHEM_CONFORMER_ID>
09B464DD00000002

> <PUBCHEM_MMFF94_ENERGY>
130.7628

> <PUBCHEM_FEATURE_SELFOVERLAP>
55.916

> <PUBCHEM_SHAPE_FINGERPRINT>
10162869 55 18339642360911104093
10280341 67 12319454334066741762
10533779 47 16343430501353985622
11061554 47 10231757769510768747
11211813 74 9439399125694807746
11456790 92 17275100588244071360
11607047 141 18413110555416750280
12089408 11 18411142476847398753
12202916 173 18187651332354087611
14040221 8 15140959526737205559
14400156 188 18335983078744861474
15064986 96 17773314531253404564
15065858 18 18409161122302383849
15183329 4 8574717897065722533
15198563 99 15574701492702654205
15392192 104 17560810973807475037
19302320 297 14836111170835688202
20105231 36 18261394395844147882
20982279 24 17750253468397643929
21026386 10 18268720407666957654
21057603 238 17972880259824201430
21102433 48 18341891931616274215
21267235 1 18261112933731031748
212700 22 18113899399250373387
21772524 286 11026607937325259095
21792934 111 18409725141059518881
21792965 169 14418139496384927709
21895431 317 18410854378831001803
23569917 315 18339643348010283998
3525247 94 18342455963769461803
437795 160 17560804381913221163
439807 62 17240202153286887777
44389302 135 18273218591381973067
474113 269 18259703411295096585
54039377 194 18261117318886937574
57527293 21 17774429590763804860
59521506 201 11999959917155536694
6081469 158 17095520725934932789
9896288 288 18052256186019617224
9962374 69 18338234994670570465

> <PUBCHEM_SHAPE_MULTIPOLES>
852.6
44.64
4.93
1.68
88.12
5.14
-0.04
72.33
7.33
-4.38
-2.41
0.28
-0.11
-1.77

> <PUBCHEM_SHAPE_SELFOVERLAP>
1743.676

> <PUBCHEM_SHAPE_VOLUME>
488.2

> <PUBCHEM_COORDINATE_TYPE>
2
5
10

$$$$
