162880774
  -OEChem-04052509183D

 46 50  0     1  0  0  0  0  0999 V2000
    1.2766   -2.0827    1.2883 O   0  0  0  0  0  0  0  0  0  0  0  0
    2.8884    1.8216    0.5120 O   0  0  0  0  0  0  0  0  0  0  0  0
    4.9402    1.9083   -0.5197 O   0  0  0  0  0  0  0  0  0  0  0  0
    0.2288   -1.5274    0.4645 C   0  0  1  0  0  0  0  0  0  0  0  0
   -1.5544    0.2913    0.1162 C   0  0  1  0  0  0  0  0  0  0  0  0
   -0.3174   -0.1862    0.9857 C   0  0  2  0  0  0  0  0  0  0  0  0
   -2.5711   -0.8887   -0.0006 C   0  0  2  0  0  0  0  0  0  0  0  0
    1.6820   -1.6036   -0.0011 C   0  0  1  0  0  0  0  0  0  0  0  0
   -0.7601   -2.6132    0.1337 C   0  0  0  0  0  0  0  0  0  0  0  0
   -1.9428   -2.1112   -0.6767 C   0  0  0  0  0  0  0  0  0  0  0  0
   -2.2854    1.4723    0.8197 C   0  0  0  0  0  0  0  0  0  0  0  0
   -3.8832   -0.4960   -0.6985 C   0  0  0  0  0  0  0  0  0  0  0  0
    0.7341    0.9163    1.0896 C   0  0  0  0  0  0  0  0  0  0  0  0
    2.4541   -0.3691   -0.0872 C   0  0  0  0  0  0  0  0  0  0  0  0
   -4.5594    0.6871    0.0041 C   0  0  1  0  0  0  0  0  0  0  0  0
   -1.0689    0.7682   -1.2814 C   0  0  0  0  0  0  0  0  0  0  0  0
   -3.6006    1.8720    0.1459 C   0  0  0  0  0  0  0  0  0  0  0  0
    1.9555    0.8036    0.5513 C   0  0  0  0  0  0  0  0  0  0  0  0
    3.6565   -0.1042   -0.5855 C   0  0  0  0  0  0  0  0  0  0  0  0
   -5.8269    1.1041   -0.7400 C   0  0  0  0  0  0  0  0  0  0  0  0
    3.9244    1.2987   -0.2231 C   0  0  0  0  0  0  0  0  0  0  0  0
    4.6298   -0.9611   -1.2971 C   0  0  0  0  0  0  0  0  0  0  0  0
   -0.6734   -0.3776    2.0081 H   0  0  0  0  0  0  0  0  0  0  0  0
   -2.8451   -1.1909    1.0222 H   0  0  0  0  0  0  0  0  0  0  0  0
    1.9180   -2.3490   -0.7528 H   0  0  0  0  0  0  0  0  0  0  0  0
   -1.1300   -3.0468    1.0719 H   0  0  0  0  0  0  0  0  0  0  0  0
   -0.2716   -3.4282   -0.4140 H   0  0  0  0  0  0  0  0  0  0  0  0
   -1.6291   -1.8752   -1.6996 H   0  0  0  0  0  0  0  0  0  0  0  0
   -2.6815   -2.9179   -0.7586 H   0  0  0  0  0  0  0  0  0  0  0  0
   -1.6439    2.3602    0.8580 H   0  0  0  0  0  0  0  0  0  0  0  0
   -2.4985    1.1986    1.8616 H   0  0  0  0  0  0  0  0  0  0  0  0
   -3.7058   -0.2633   -1.7550 H   0  0  0  0  0  0  0  0  0  0  0  0
   -4.5684   -1.3538   -0.6884 H   0  0  0  0  0  0  0  0  0  0  0  0
    0.4556    1.8462    1.5764 H   0  0  0  0  0  0  0  0  0  0  0  0
   -4.8544    0.3638    1.0115 H   0  0  0  0  0  0  0  0  0  0  0  0
   -1.8965    0.9620   -1.9688 H   0  0  0  0  0  0  0  0  0  0  0  0
   -0.5026    1.7036   -1.2087 H   0  0  0  0  0  0  0  0  0  0  0  0
   -0.4166    0.0333   -1.7633 H   0  0  0  0  0  0  0  0  0  0  0  0
   -4.0776    2.6602    0.7417 H   0  0  0  0  0  0  0  0  0  0  0  0
   -3.3956    2.3135   -0.8367 H   0  0  0  0  0  0  0  0  0  0  0  0
   -5.5997    1.4387   -1.7579 H   0  0  0  0  0  0  0  0  0  0  0  0
   -6.3313    1.9244   -0.2184 H   0  0  0  0  0  0  0  0  0  0  0  0
   -6.5304    0.2676   -0.8076 H   0  0  0  0  0  0  0  0  0  0  0  0
    4.8234   -0.5664   -2.2994 H   0  0  0  0  0  0  0  0  0  0  0  0
    4.2663   -1.9875   -1.4049 H   0  0  0  0  0  0  0  0  0  0  0  0
    5.5783   -0.9982   -0.7522 H   0  0  0  0  0  0  0  0  0  0  0  0
  1  4  1  0  0  0  0
  1  8  1  0  0  0  0
  2 18  1  0  0  0  0
  2 21  1  0  0  0  0
  3 21  2  0  0  0  0
  4  6  1  0  0  0  0
  4  8  1  0  0  0  0
  4  9  1  0  0  0  0
  5  6  1  0  0  0  0
  5  7  1  0  0  0  0
  5 11  1  0  0  0  0
  5 16  1  0  0  0  0
  6 13  1  0  0  0  0
  6 23  1  0  0  0  0
  7 10  1  0  0  0  0
  7 12  1  0  0  0  0
  7 24  1  0  0  0  0
  8 14  1  0  0  0  0
  8 25  1  0  0  0  0
  9 10  1  0  0  0  0
  9 26  1  0  0  0  0
  9 27  1  0  0  0  0
 10 28  1  0  0  0  0
 10 29  1  0  0  0  0
 11 17  1  0  0  0  0
 11 30  1  0  0  0  0
 11 31  1  0  0  0  0
 12 15  1  0  0  0  0
 12 32  1  0  0  0  0
 12 33  1  0  0  0  0
 13 18  2  0  0  0  0
 13 34  1  0  0  0  0
 14 18  1  0  0  0  0
 14 19  2  0  0  0  0
 15 17  1  0  0  0  0
 15 20  1  0  0  0  0
 15 35  1  0  0  0  0
 16 36  1  0  0  0  0
 16 37  1  0  0  0  0
 16 38  1  0  0  0  0
 17 39  1  0  0  0  0
 17 40  1  0  0  0  0
 19 21  1  0  0  0  0
 19 22  1  0  0  0  0
 20 41  1  0  0  0  0
 20 42  1  0  0  0  0
 20 43  1  0  0  0  0
 22 44  1  0  0  0  0
 22 45  1  0  0  0  0
 22 46  1  0  0  0  0
M  END
> <PUBCHEM_COMPOUND_CID>
162880774

> <PUBCHEM_CONFORMER_RMSD>
0.6

> <PUBCHEM_CONFORMER_DIVERSEORDER>
1
2
3

> <PUBCHEM_MMFF94_PARTIAL_CHARGES>
15
1 -0.3
13 -0.29
14 -0.04
18 0.08
19 -0.12
2 -0.23
21 0.71
22 0.14
25 0.1
3 -0.57
34 0.15
4 -0.04
6 0.23
8 0.09
9 0.09

> <PUBCHEM_EFFECTIVE_ROTOR_COUNT>
1.6

> <PUBCHEM_PHARMACOPHORE_FEATURES>
6
1 1 acceptor
1 3 acceptor
5 2 14 18 19 21 rings
6 4 5 6 7 9 10 rings
6 5 7 11 12 15 17 rings
7 1 4 6 8 13 14 18 rings

> <PUBCHEM_HEAVY_ATOM_COUNT>
22

> <PUBCHEM_ATOM_DEF_STEREO_COUNT>
4

> <PUBCHEM_ATOM_UDEF_STEREO_COUNT>
2

> <PUBCHEM_BOND_DEF_STEREO_COUNT>
0

> <PUBCHEM_BOND_UDEF_STEREO_COUNT>
0

> <PUBCHEM_ISOTOPIC_ATOM_COUNT>
0

> <PUBCHEM_COMPONENT_COUNT>
1

> <PUBCHEM_CACTVS_TAUTO_COUNT>
-1

> <PUBCHEM_CONFORMER_ID>
09B55D0600000001

> <PUBCHEM_MMFF94_ENERGY>
48.1228

> <PUBCHEM_FEATURE_SELFOVERLAP>
30.544

> <PUBCHEM_SHAPE_FINGERPRINT>
10165383 225 18334576845484091828
10498660 4 18334007294186853733
10756046 5 18272934933712127814
10759866 29 18335977589090913107
10863032 1 18342459261417667198
10948715 1 18410295795935699631
11265709 11 9799693709569437891
11578080 2 15839845555321680275
11796584 16 13686290262864340653
12011746 2 18410012100840627429
12035759 4 18129949961752944002
12173636 292 18341324539848439301
12644460 14 18114744811263087595
12730499 353 18333738996343679315
12788726 201 17774725255974533129
12892183 10 11169906204137545518
12954195 1 17916878915021410961
12969540 114 18260815000228309109
13221675 6 18272366473310202643
13464514 151 18411423899414122162
13583140 156 16733543943975297816
13878862 14 17755560674151129845
14528608 73 18410005525398781941
14790565 3 18270688558848709353
14931854 50 18272371957810003181
15196674 1 18410855490198428511
15342168 16 17967818274981456333
15848700 24 10952052251559540160
15885798 251 10303814289289095443
1601671 61 17967249780547275637
16752209 62 17417243226668748297
16945 1 18269269226142941434
17959699 21 18410576184238231140
18186145 218 18410009923181444788
18222031 100 11240002260946886552
19784866 240 15697450918887044846
19784866 34 18260826016191961243
19862831 5 18202565064010107889
200 152 16917079892540143090
20602899 9 16702304563957116991
20612939 158 18336827494108930330
21501502 16 18410001118250782675
21524375 3 18334289860106395594
21637258 2 14261359037562670644
221357 26 18131069316446560401
22182313 1 18195548080187633322
22620623 9 17630886212578341415
22854114 111 18187642475181755650
231179 274 17894624838113438157
23227448 37 18337674238316140653
23558518 356 17756421926213942144
23559900 14 18201720708765232704
23590187 302 18060133228262958760
24859131 72 8142096350622994728
25 1 18409449185083381546
2637199 183 18340209596197427251
2748010 2 17261019447152623667
2871803 45 18412261709799238561
293599 30 18409448102778068005
296302 2 17458344126650460017
3004659 81 18342178835051124462
3060560 45 18409166576203604254
3323516 105 18273214230971393560
335352 9 18410575055284318294
3380486 145 16822221992054708146
34934 24 18260260859110328057
350125 39 18189609445612186188
3759504 43 17968381242157139723
394222 165 18188203208752951747
4028521 119 18411419544000454543
4280585 95 17268085545093031270
4340502 62 17095526176036993683
449060 62 18260827073075422475
474 4 18040720289570282476
495365 180 17417520419694920696
4990 188 18131635568981412494
53917941 68 18265040500232769512
59755656 520 17240480338386766842
6034566 193 17606423173950560861
633830 44 18334855047769225270
6442390 28 18113343028538158491
76465 3 10519993659640144189
9709674 26 18271532017205016494
9981440 41 17906165506307959824

> <PUBCHEM_SHAPE_MULTIPOLES>
435.14
9.61
2.38
1.08
1.78
0.75
-0.03
-4.69
-3.5
-0.28
0.19
-0.21
0.04
-0.05

> <PUBCHEM_SHAPE_SELFOVERLAP>
956.849

> <PUBCHEM_SHAPE_VOLUME>
234.6

> <PUBCHEM_COORDINATE_TYPE>
2
5
10

$$$$
