637437
  -OEChem-04052509173D

 48 50  0     1  0  0  0  0  0999 V2000
    1.6335   -0.5892    0.0101 O   0  0  0  0  0  0  0  0  0  0  0  0
    0.2307   -2.8715    0.3456 O   0  0  0  0  0  0  0  0  0  0  0  0
   -2.4638    1.9465    0.5659 O   0  0  0  0  0  0  0  0  0  0  0  0
   -0.2027    3.0793    0.0295 O   0  0  0  0  0  0  0  0  0  0  0  0
   -2.4775   -2.8111    0.8098 O   0  0  0  0  0  0  0  0  0  0  0  0
    2.3595    0.5926    0.3820 C   0  0  2  0  0  0  0  0  0  0  0  0
    1.8083    1.8232   -0.3358 C   0  0  0  0  0  0  0  0  0  0  0  0
   -0.3942    0.7392    0.2760 C   0  0  0  0  0  0  0  0  0  0  0  0
    0.2855   -0.4817    0.2357 C   0  0  0  0  0  0  0  0  0  0  0  0
    0.3525    1.9872    0.0162 C   0  0  0  0  0  0  0  0  0  0  0  0
    3.8222    0.3789    0.0542 C   0  0  0  0  0  0  0  0  0  0  0  0
   -2.4670   -0.4214    0.6994 C   0  0  0  0  0  0  0  0  0  0  0  0
   -1.7703    0.7733    0.5148 C   0  0  0  0  0  0  0  0  0  0  0  0
   -0.4200   -1.6741    0.4017 C   0  0  0  0  0  0  0  0  0  0  0  0
   -1.7946   -1.6425    0.6382 C   0  0  0  0  0  0  0  0  0  0  0  0
   -3.9410   -0.3978    0.9550 C   0  0  0  0  0  0  0  0  0  0  0  0
    4.1838   -0.4089   -1.0384 C   0  0  0  0  0  0  0  0  0  0  0  0
    4.8074    0.9695    0.8451 C   0  0  0  0  0  0  0  0  0  0  0  0
   -4.7545   -0.4610   -0.3125 C   0  0  0  0  0  0  0  0  0  0  0  0
    5.5312   -0.6063   -1.3403 C   0  0  0  0  0  0  0  0  0  0  0  0
    6.1549    0.7724    0.5432 C   0  0  0  0  0  0  0  0  0  0  0  0
   -5.6221    0.4527   -0.7882 C   0  0  0  0  0  0  0  0  0  0  0  0
    6.5167   -0.0157   -0.5494 C   0  0  0  0  0  0  0  0  0  0  0  0
    0.9102   -3.1817   -0.8686 C   0  0  0  0  0  0  0  0  0  0  0  0
   -6.4032    0.3251   -2.0652 C   0  0  0  0  0  0  0  0  0  0  0  0
   -5.8854    1.7231   -0.0241 C   0  0  0  0  0  0  0  0  0  0  0  0
    2.2638    0.7050    1.4723 H   0  0  0  0  0  0  0  0  0  0  0  0
    1.8777    1.7244   -1.4255 H   0  0  0  0  0  0  0  0  0  0  0  0
    2.3504    2.7236   -0.0262 H   0  0  0  0  0  0  0  0  0  0  0  0
   -4.2400   -1.2379    1.5952 H   0  0  0  0  0  0  0  0  0  0  0  0
   -4.1816    0.4586    1.5892 H   0  0  0  0  0  0  0  0  0  0  0  0
    3.4361   -0.8686   -1.6789 H   0  0  0  0  0  0  0  0  0  0  0  0
    4.5379    1.5869    1.6978 H   0  0  0  0  0  0  0  0  0  0  0  0
   -4.6178   -1.3664   -0.9032 H   0  0  0  0  0  0  0  0  0  0  0  0
   -1.8610    2.7042    0.5273 H   0  0  0  0  0  0  0  0  0  0  0  0
    5.8132   -1.2170   -2.1930 H   0  0  0  0  0  0  0  0  0  0  0  0
    6.9223    1.2328    1.1585 H   0  0  0  0  0  0  0  0  0  0  0  0
   -3.4052   -2.7082    0.5474 H   0  0  0  0  0  0  0  0  0  0  0  0
    7.5659   -0.1685   -0.7850 H   0  0  0  0  0  0  0  0  0  0  0  0
    0.5202   -2.6195   -1.7244 H   0  0  0  0  0  0  0  0  0  0  0  0
    0.7689   -4.2478   -1.0700 H   0  0  0  0  0  0  0  0  0  0  0  0
    1.9823   -3.0009   -0.7508 H   0  0  0  0  0  0  0  0  0  0  0  0
   -6.1894   -0.6200   -2.5750 H   0  0  0  0  0  0  0  0  0  0  0  0
   -7.4781    0.3592   -1.8604 H   0  0  0  0  0  0  0  0  0  0  0  0
   -6.1504    1.1398   -2.7513 H   0  0  0  0  0  0  0  0  0  0  0  0
   -5.2269    1.9211    0.8198 H   0  0  0  0  0  0  0  0  0  0  0  0
   -5.7799    2.5823   -0.6967 H   0  0  0  0  0  0  0  0  0  0  0  0
   -6.9136    1.7188    0.3539 H   0  0  0  0  0  0  0  0  0  0  0  0
  1  6  1  0  0  0  0
  1  9  1  0  0  0  0
  2 14  1  0  0  0  0
  2 24  1  0  0  0  0
  3 13  1  0  0  0  0
  3 35  1  0  0  0  0
  4 10  2  0  0  0  0
  5 15  1  0  0  0  0
  5 38  1  0  0  0  0
  6  7  1  0  0  0  0
  6 11  1  0  0  0  0
  6 27  1  0  0  0  0
  7 10  1  0  0  0  0
  7 28  1  0  0  0  0
  7 29  1  0  0  0  0
  8  9  2  0  0  0  0
  8 10  1  0  0  0  0
  8 13  1  0  0  0  0
  9 14  1  0  0  0  0
 11 17  2  0  0  0  0
 11 18  1  0  0  0  0
 12 13  2  0  0  0  0
 12 15  1  0  0  0  0
 12 16  1  0  0  0  0
 14 15  2  0  0  0  0
 16 19  1  0  0  0  0
 16 30  1  0  0  0  0
 16 31  1  0  0  0  0
 17 20  1  0  0  0  0
 17 32  1  0  0  0  0
 18 21  2  0  0  0  0
 18 33  1  0  0  0  0
 19 22  2  0  0  0  0
 19 34  1  0  0  0  0
 20 23  2  0  0  0  0
 20 36  1  0  0  0  0
 21 23  1  0  0  0  0
 21 37  1  0  0  0  0
 22 25  1  0  0  0  0
 22 26  1  0  0  0  0
 23 39  1  0  0  0  0
 24 40  1  0  0  0  0
 24 41  1  0  0  0  0
 24 42  1  0  0  0  0
 25 43  1  0  0  0  0
 25 44  1  0  0  0  0
 25 45  1  0  0  0  0
 26 46  1  0  0  0  0
 26 47  1  0  0  0  0
 26 48  1  0  0  0  0
M  END
> <PUBCHEM_COMPOUND_CID>
637437

> <PUBCHEM_CONFORMER_RMSD>
0.8

> <PUBCHEM_CONFORMER_DIVERSEORDER>
1
11
17
16
18
15
2
12
19
13
14
7
6
3
4
5
9
8
10

> <PUBCHEM_MMFF94_PARTIAL_CHARGES>
34
1 -0.36
10 0.42
11 -0.14
12 -0.14
13 0.08
14 0.08
15 0.08
16 0.28
17 -0.15
18 -0.15
19 -0.29
2 -0.36
20 -0.15
21 -0.15
22 -0.28
23 -0.15
24 0.28
25 0.14
26 0.14
3 -0.53
32 0.15
33 0.15
34 0.15
35 0.45
36 0.15
37 0.15
38 0.45
39 0.15
4 -0.57
5 -0.53
6 0.42
7 0.06
8 0.09
9 0.08

> <PUBCHEM_EFFECTIVE_ROTOR_COUNT>
4.6

> <PUBCHEM_PHARMACOPHORE_FEATURES>
9
1 1 acceptor
1 2 acceptor
1 3 donor
1 4 acceptor
1 5 donor
3 22 25 26 hydrophobe
6 1 6 7 8 9 10 rings
6 11 17 18 20 21 23 rings
6 8 9 12 13 14 15 rings

> <PUBCHEM_HEAVY_ATOM_COUNT>
26

> <PUBCHEM_ATOM_DEF_STEREO_COUNT>
1

> <PUBCHEM_ATOM_UDEF_STEREO_COUNT>
0

> <PUBCHEM_BOND_DEF_STEREO_COUNT>
0

> <PUBCHEM_BOND_UDEF_STEREO_COUNT>
0

> <PUBCHEM_ISOTOPIC_ATOM_COUNT>
0

> <PUBCHEM_COMPONENT_COUNT>
1

> <PUBCHEM_CACTVS_TAUTO_COUNT>
21

> <PUBCHEM_CONFORMER_ID>
0009B9FD00000001

> <PUBCHEM_MMFF94_ENERGY>
84.9758

> <PUBCHEM_FEATURE_SELFOVERLAP>
45.708

> <PUBCHEM_SHAPE_FINGERPRINT>
10693767 8 18130780110455215599
10835480 77 18339076120475280824
10906281 52 18335715905286468657
11578080 2 17025147419705292599
11646440 116 18270694142089513937
12011746 2 18410292510180034740
12236239 1 13470696927762740082
12596602 18 14117524220772864478
12788726 201 18338795615612248128
12838862 33 18337655487143131728
13140716 1 18122920973354062675
13402501 40 18413674608353307564
13533116 47 18337386029480010986
13540713 4 18048312533920136233
15048467 5 15140678081218655925
15099037 51 18335703870677192293
15131766 46 16082796935531284764
15183329 4 18114176428408333229
15196674 1 18265338493875194896
15927050 60 17693949487868462104
1601671 61 18259701202932631553
18681886 176 18340480170626418225
20511986 3 17896609577805307300
21033648 29 17988353854085971840
21236236 1 18342179921235349361
21267235 1 18336841873575002626
21279426 13 18409167752734538453
21307412 95 18199770105991086790
21521239 73 17917985088254298327
21709351 56 18335698395058107447
21859007 373 18041541603577372364
22122407 14 15502956163423581860
2215653 11 18273220798514381430
22182313 1 18267892564919109907
22393880 68 18340192099154934183
23402539 116 18342736346810973486
23559900 14 18341611585308413104
23566358 2 18193270798348643005
23569914 152 17048514107875080717
23576562 1 17824268313107234772
266924 87 18266458694255239405
283562 15 18270122305606495128
2838139 119 17095793383005766165
3004659 81 18113904892407893284
3009799 131 18409162220917238757
335352 9 18408606989051489101
340366 18 17968100888077235684
34934 24 18335415776992705874
4015057 19 17775000262593235633
4058900 60 17676768648490689315
484989 97 18191585462130673803
5385378 56 18261678052131306611
59554788 191 18264494064455124639
59755656 215 18410576154426700326
6004065 56 17988353887981673977
6138700 20 18411140212407811286
6328613 192 18114467863398671636

> <PUBCHEM_SHAPE_MULTIPOLES>
505.72
14.63
2.71
1.14
1.71
1.17
0.41
-3.71
5.07
-0.85
-0.14
-0.67
0.16
1.06

> <PUBCHEM_SHAPE_SELFOVERLAP>
1095.124

> <PUBCHEM_SHAPE_VOLUME>
277

> <PUBCHEM_COORDINATE_TYPE>
2
5
10

$$$$
