5315801
  -OEChem-04052509263D

 45 48  0     1  0  0  0  0  0999 V2000
   -0.2391    0.5431   -0.5178 O   0  0  0  0  0  0  0  0  0  0  0  0
    1.4758    3.9891    0.9016 O   0  0  0  0  0  0  0  0  0  0  0  0
    3.8299    2.8898    0.7214 O   0  0  0  0  0  0  0  0  0  0  0  0
    4.0200   -1.4979   -1.0568 O   0  0  0  0  0  0  0  0  0  0  0  0
   -1.5970   -2.2362   -1.3614 O   0  0  0  0  0  0  0  0  0  0  0  0
   -0.9579    1.4056    0.3778 C   0  0  1  0  0  0  0  0  0  0  0  0
   -0.5229    2.8596    0.2053 C   0  0  0  0  0  0  0  0  0  0  0  0
    1.1211    0.6423   -0.3776 C   0  0  0  0  0  0  0  0  0  0  0  0
    1.7636    1.7800    0.1196 C   0  0  0  0  0  0  0  0  0  0  0  0
    1.8762   -0.4571   -0.7880 C   0  0  0  0  0  0  0  0  0  0  0  0
    0.9559    2.9656    0.4731 C   0  0  0  0  0  0  0  0  0  0  0  0
   -2.4397    1.2438    0.1120 C   0  0  0  0  0  0  0  0  0  0  0  0
    1.2041   -1.6731   -1.3425 C   0  0  0  0  0  0  0  0  0  0  0  0
    3.1553    1.8091    0.2390 C   0  0  0  0  0  0  0  0  0  0  0  0
    3.2662   -0.4297   -0.6709 C   0  0  0  0  0  0  0  0  0  0  0  0
    3.9036    0.6989   -0.1540 C   0  0  0  0  0  0  0  0  0  0  0  0
    0.5282   -2.5288   -0.2926 C   0  0  0  0  0  0  0  0  0  0  0  0
   -3.3538    1.3778    1.1569 C   0  0  0  0  0  0  0  0  0  0  0  0
   -2.8900    0.9614   -1.1774 C   0  0  0  0  0  0  0  0  0  0  0  0
   -0.8349   -2.7620   -0.3619 C   0  0  0  0  0  0  0  0  0  0  0  0
    1.3024   -3.0634    0.7238 C   0  0  0  0  0  0  0  0  0  0  0  0
   -4.7189    1.2290    0.9122 C   0  0  0  0  0  0  0  0  0  0  0  0
   -4.2552    0.8128   -1.4220 C   0  0  0  0  0  0  0  0  0  0  0  0
   -5.1696    0.9466   -0.3771 C   0  0  0  0  0  0  0  0  0  0  0  0
   -1.4418   -3.5530    0.6137 C   0  0  0  0  0  0  0  0  0  0  0  0
    0.6953   -3.8543    1.6993 C   0  0  0  0  0  0  0  0  0  0  0  0
   -0.6767   -4.0989    1.6444 C   0  0  0  0  0  0  0  0  0  0  0  0
   -0.7517    1.0577    1.4011 H   0  0  0  0  0  0  0  0  0  0  0  0
   -1.0570    3.5066    0.9098 H   0  0  0  0  0  0  0  0  0  0  0  0
   -0.7029    3.2204   -0.8143 H   0  0  0  0  0  0  0  0  0  0  0  0
    1.9096   -2.3138   -1.8878 H   0  0  0  0  0  0  0  0  0  0  0  0
    0.5012   -1.3531   -2.1225 H   0  0  0  0  0  0  0  0  0  0  0  0
    4.9876    0.7134   -0.0652 H   0  0  0  0  0  0  0  0  0  0  0  0
   -3.0150    1.5995    2.1653 H   0  0  0  0  0  0  0  0  0  0  0  0
   -2.1998    0.8647   -2.0110 H   0  0  0  0  0  0  0  0  0  0  0  0
    2.3731   -2.8944    0.7788 H   0  0  0  0  0  0  0  0  0  0  0  0
   -5.4310    1.3338    1.7254 H   0  0  0  0  0  0  0  0  0  0  0  0
   -4.6065    0.5954   -2.4264 H   0  0  0  0  0  0  0  0  0  0  0  0
   -6.2326    0.8315   -0.5679 H   0  0  0  0  0  0  0  0  0  0  0  0
    4.7845    2.7043    0.7196 H   0  0  0  0  0  0  0  0  0  0  0  0
    4.9589   -1.2987   -0.9002 H   0  0  0  0  0  0  0  0  0  0  0  0
   -2.5098   -3.7514    0.5834 H   0  0  0  0  0  0  0  0  0  0  0  0
    1.2913   -4.2816    2.5004 H   0  0  0  0  0  0  0  0  0  0  0  0
   -1.1492   -4.7150    2.4038 H   0  0  0  0  0  0  0  0  0  0  0  0
   -2.5231   -2.5016   -1.2281 H   0  0  0  0  0  0  0  0  0  0  0  0
  1  6  1  0  0  0  0
  1  8  1  0  0  0  0
  2 11  2  0  0  0  0
  3 14  1  0  0  0  0
  3 40  1  0  0  0  0
  4 15  1  0  0  0  0
  4 41  1  0  0  0  0
  5 20  1  0  0  0  0
  5 45  1  0  0  0  0
  6  7  1  0  0  0  0
  6 12  1  0  0  0  0
  6 28  1  0  0  0  0
  7 11  1  0  0  0  0
  7 29  1  0  0  0  0
  7 30  1  0  0  0  0
  8  9  1  0  0  0  0
  8 10  2  0  0  0  0
  9 11  1  0  0  0  0
  9 14  2  0  0  0  0
 10 13  1  0  0  0  0
 10 15  1  0  0  0  0
 12 18  2  0  0  0  0
 12 19  1  0  0  0  0
 13 17  1  0  0  0  0
 13 31  1  0  0  0  0
 13 32  1  0  0  0  0
 14 16  1  0  0  0  0
 15 16  2  0  0  0  0
 16 33  1  0  0  0  0
 17 20  1  0  0  0  0
 17 21  2  0  0  0  0
 18 22  1  0  0  0  0
 18 34  1  0  0  0  0
 19 23  2  0  0  0  0
 19 35  1  0  0  0  0
 20 25  2  0  0  0  0
 21 26  1  0  0  0  0
 21 36  1  0  0  0  0
 22 24  2  0  0  0  0
 22 37  1  0  0  0  0
 23 24  1  0  0  0  0
 23 38  1  0  0  0  0
 24 39  1  0  0  0  0
 25 27  1  0  0  0  0
 25 42  1  0  0  0  0
 26 27  2  0  0  0  0
 26 43  1  0  0  0  0
 27 44  1  0  0  0  0
M  END
> <PUBCHEM_COMPOUND_CID>
5315801

> <PUBCHEM_CONFORMER_RMSD>
0.8

> <PUBCHEM_CONFORMER_DIVERSEORDER>
1
14
9
21
13
19
17
23
24
27
22
7
12
4
18
16
20
6
26
15
8
3
25
11
10
5
2

> <PUBCHEM_MMFF94_PARTIAL_CHARGES>
40
1 -0.36
10 -0.14
11 0.42
12 -0.14
13 0.29
14 0.08
15 0.08
16 -0.15
17 -0.14
18 -0.15
19 -0.15
2 -0.57
20 0.08
21 -0.15
22 -0.15
23 -0.15
24 -0.15
25 -0.15
26 -0.15
27 -0.15
3 -0.53
33 0.15
34 0.15
35 0.15
36 0.15
37 0.15
38 0.15
39 0.15
4 -0.53
40 0.45
41 0.45
42 0.15
43 0.15
44 0.15
45 0.45
5 -0.53
6 0.42
7 0.06
8 0.08
9 0.09

> <PUBCHEM_EFFECTIVE_ROTOR_COUNT>
3.6

> <PUBCHEM_PHARMACOPHORE_FEATURES>
9
1 1 acceptor
1 2 acceptor
1 3 donor
1 4 donor
1 5 donor
6 1 6 7 8 9 11 rings
6 12 18 19 22 23 24 rings
6 17 20 21 25 26 27 rings
6 8 9 10 14 15 16 rings

> <PUBCHEM_HEAVY_ATOM_COUNT>
27

> <PUBCHEM_ATOM_DEF_STEREO_COUNT>
1

> <PUBCHEM_ATOM_UDEF_STEREO_COUNT>
0

> <PUBCHEM_BOND_DEF_STEREO_COUNT>
0

> <PUBCHEM_BOND_UDEF_STEREO_COUNT>
0

> <PUBCHEM_ISOTOPIC_ATOM_COUNT>
0

> <PUBCHEM_COMPONENT_COUNT>
1

> <PUBCHEM_CACTVS_TAUTO_COUNT>
63

> <PUBCHEM_CONFORMER_ID>
00511CD900000001

> <PUBCHEM_MMFF94_ENERGY>
80.3892

> <PUBCHEM_FEATURE_SELFOVERLAP>
45.702

> <PUBCHEM_SHAPE_FINGERPRINT>
10074138 170 17834077082636591968
10119406 146 17835833832241766302
10688039 33 17467914511971664547
108634 29 18267307714573674534
10906281 52 18201169823148267812
1100329 8 18409722933562042034
11387372 6 18048841249332605824
11578080 2 16055732421694820386
12156800 1 17838862135570346027
12553582 1 16898778186076866981
12788726 201 17689981749682263818
13140716 1 18411418432031238322
14787075 74 18267597801465930158
14790565 3 18341066120204309280
15420108 30 16693322403876636201
16728300 4 17390198470519837882
17138139 8 17698129045762416151
19026451 147 18049423861219519599
19591789 44 18411423868990304124
20511986 3 17631155417319179753
21197605 99 18126580144226500843
21421861 104 17617676353427627209
22182313 1 17770802387855611740
23558518 356 18049714423613526404
3298306 158 18262231123817831981
3383291 50 18191870016509856498
392239 28 18339935839683227275
4058900 60 18336274461204152613
4409770 3 16899589101720277965
463206 1 18265616485807748531
469060 322 17676480709847220135
6669772 16 18409160018031370338
70251023 43 17767698152607306271
7097593 13 16895687463128127176
81228 2 17902793299206920639
9896288 288 17259325680662984826
9981440 41 16838502352973417936

> <PUBCHEM_SHAPE_MULTIPOLES>
526.3
7.3
5.56
1.35
6.43
3.62
0.01
-4.23
-1.04
-2.69
2.91
0.37
0.75
0.31

> <PUBCHEM_SHAPE_SELFOVERLAP>
1174.933

> <PUBCHEM_SHAPE_VOLUME>
277

> <PUBCHEM_COORDINATE_TYPE>
2
5
10

$$$$
