162981877
  -OEChem-04052509233D

 54 57  0     1  0  0  0  0  0999 V2000
    0.4535    0.5872    1.3245 O   0  0  0  0  0  0  0  0  0  0  0  0
    4.6793    3.0955   -1.3712 O   0  0  0  0  0  0  0  0  0  0  0  0
    1.9539    3.4807   -1.5325 O   0  0  0  0  0  0  0  0  0  0  0  0
    2.0281    2.7527    2.0412 O   0  0  0  0  0  0  0  0  0  0  0  0
    4.5675   -1.1406   -1.1968 O   0  0  0  0  0  0  0  0  0  0  0  0
   -2.1096   -1.5544   -0.2347 O   0  0  0  0  0  0  0  0  0  0  0  0
   -1.7736    2.2478    1.1915 O   0  0  0  0  0  0  0  0  0  0  0  0
   -4.2686    2.7105    0.5624 O   0  0  0  0  0  0  0  0  0  0  0  0
   -6.6564   -0.8825   -1.4213 O   0  0  0  0  0  0  0  0  0  0  0  0
    3.1804   -4.9341    0.2446 O   0  0  0  0  0  0  0  0  0  0  0  0
    3.5912    0.9955   -0.7559 C   0  0  2  0  0  0  0  0  0  0  0  0
    3.8564    2.4695   -0.3888 C   0  0  2  0  0  0  0  0  0  0  0  0
    2.5957    0.3594    0.2265 C   0  0  0  0  0  0  0  0  0  0  0  0
    1.3027    1.1688    0.3392 C   0  0  2  0  0  0  0  0  0  0  0  0
    2.5627    3.2922   -0.2545 C   0  0  2  0  0  0  0  0  0  0  0  0
    1.5561    2.6390    0.6986 C   0  0  2  0  0  0  0  0  0  0  0  0
    4.8847    0.1756   -0.7882 C   0  0  0  0  0  0  0  0  0  0  0  0
   -0.7380    0.1581    0.7809 C   0  0  0  0  0  0  0  0  0  0  0  0
   -0.9167   -1.0810    0.2880 C   0  0  0  0  0  0  0  0  0  0  0  0
   -1.8765    1.1077    0.7587 C   0  0  0  0  0  0  0  0  0  0  0  0
   -3.1359    0.6040    0.1894 C   0  0  0  0  0  0  0  0  0  0  0  0
    0.1567   -2.0908    0.2764 C   0  0  0  0  0  0  0  0  0  0  0  0
   -3.1865   -0.7070   -0.2786 C   0  0  0  0  0  0  0  0  0  0  0  0
   -4.2658    1.4225    0.1191 C   0  0  0  0  0  0  0  0  0  0  0  0
   -4.3700   -1.2092   -0.8206 C   0  0  0  0  0  0  0  0  0  0  0  0
    0.7375   -2.5047    1.4752 C   0  0  0  0  0  0  0  0  0  0  0  0
    0.5916   -2.6329   -0.9330 C   0  0  0  0  0  0  0  0  0  0  0  0
   -5.4482    0.9181   -0.4238 C   0  0  0  0  0  0  0  0  0  0  0  0
   -5.5005   -0.3951   -0.8927 C   0  0  0  0  0  0  0  0  0  0  0  0
    1.7531   -3.4608    1.4645 C   0  0  0  0  0  0  0  0  0  0  0  0
    1.6072   -3.5890   -0.9436 C   0  0  0  0  0  0  0  0  0  0  0  0
    2.1879   -4.0029    0.2552 C   0  0  0  0  0  0  0  0  0  0  0  0
    3.1516    0.9528   -1.7624 H   0  0  0  0  0  0  0  0  0  0  0  0
    4.4020    2.5027    0.5630 H   0  0  0  0  0  0  0  0  0  0  0  0
    2.3712   -0.6560   -0.0960 H   0  0  0  0  0  0  0  0  0  0  0  0
    3.0512    0.2590    1.2208 H   0  0  0  0  0  0  0  0  0  0  0  0
    0.8260    1.1530   -0.6535 H   0  0  0  0  0  0  0  0  0  0  0  0
    2.8316    4.2919    0.1086 H   0  0  0  0  0  0  0  0  0  0  0  0
    0.6029    3.1775    0.6596 H   0  0  0  0  0  0  0  0  0  0  0  0
    5.3564    0.1368    0.1994 H   0  0  0  0  0  0  0  0  0  0  0  0
    5.5988    0.5963   -1.5030 H   0  0  0  0  0  0  0  0  0  0  0  0
    4.8485    4.0065   -1.0762 H   0  0  0  0  0  0  0  0  0  0  0  0
    1.1657    4.0353   -1.4035 H   0  0  0  0  0  0  0  0  0  0  0  0
    2.1423    3.6991    2.2331 H   0  0  0  0  0  0  0  0  0  0  0  0
    5.3976   -1.6468   -1.2063 H   0  0  0  0  0  0  0  0  0  0  0  0
   -4.4129   -2.2320   -1.1866 H   0  0  0  0  0  0  0  0  0  0  0  0
    0.4082   -2.0999    2.4291 H   0  0  0  0  0  0  0  0  0  0  0  0
    0.1519   -2.3181   -1.8763 H   0  0  0  0  0  0  0  0  0  0  0  0
   -6.3286    1.5542   -0.4792 H   0  0  0  0  0  0  0  0  0  0  0  0
    2.2012   -3.7798    2.4016 H   0  0  0  0  0  0  0  0  0  0  0  0
    1.9384   -4.0021   -1.8925 H   0  0  0  0  0  0  0  0  0  0  0  0
   -3.3966    2.9530    0.9096 H   0  0  0  0  0  0  0  0  0  0  0  0
   -7.3347   -0.1859   -1.3928 H   0  0  0  0  0  0  0  0  0  0  0  0
    3.3551   -5.1978   -0.6751 H   0  0  0  0  0  0  0  0  0  0  0  0
  1 14  1  0  0  0  0
  1 18  1  0  0  0  0
  2 12  1  0  0  0  0
  2 42  1  0  0  0  0
  3 15  1  0  0  0  0
  3 43  1  0  0  0  0
  4 16  1  0  0  0  0
  4 44  1  0  0  0  0
  5 17  1  0  0  0  0
  5 45  1  0  0  0  0
  6 19  1  0  0  0  0
  6 23  1  0  0  0  0
  7 20  2  0  0  0  0
  8 24  1  0  0  0  0
  8 52  1  0  0  0  0
  9 29  1  0  0  0  0
  9 53  1  0  0  0  0
 10 32  1  0  0  0  0
 10 54  1  0  0  0  0
 11 12  1  0  0  0  0
 11 13  1  0  0  0  0
 11 17  1  0  0  0  0
 11 33  1  0  0  0  0
 12 15  1  0  0  0  0
 12 34  1  0  0  0  0
 13 14  1  0  0  0  0
 13 35  1  0  0  0  0
 13 36  1  0  0  0  0
 14 16  1  0  0  0  0
 14 37  1  0  0  0  0
 15 16  1  0  0  0  0
 15 38  1  0  0  0  0
 16 39  1  0  0  0  0
 17 40  1  0  0  0  0
 17 41  1  0  0  0  0
 18 19  2  0  0  0  0
 18 20  1  0  0  0  0
 19 22  1  0  0  0  0
 20 21  1  0  0  0  0
 21 23  1  0  0  0  0
 21 24  2  0  0  0  0
 22 26  2  0  0  0  0
 22 27  1  0  0  0  0
 23 25  2  0  0  0  0
 24 28  1  0  0  0  0
 25 29  1  0  0  0  0
 25 46  1  0  0  0  0
 26 30  1  0  0  0  0
 26 47  1  0  0  0  0
 27 31  2  0  0  0  0
 27 48  1  0  0  0  0
 28 29  2  0  0  0  0
 28 49  1  0  0  0  0
 30 32  2  0  0  0  0
 30 50  1  0  0  0  0
 31 32  1  0  0  0  0
 31 51  1  0  0  0  0
M  END
> <PUBCHEM_COMPOUND_CID>
162981877

> <PUBCHEM_CONFORMER_RMSD>
0.8

> <PUBCHEM_CONFORMER_DIVERSEORDER>
1
37
8
40
26
42
39
27
7
11
36
28
35
44
31
25
43
3
4
19
41
22
17
5
12
9
2
21
16
33
24
32
30
10
23
13
20
29
18
15
38
45
34
14
6

> <PUBCHEM_MMFF94_PARTIAL_CHARGES>
43
1 -0.36
10 -0.53
12 0.28
14 0.28
15 0.28
16 0.28
17 0.28
18 0.09
19 0.05
2 -0.68
20 0.47
21 0.09
22 0.03
23 0.08
24 0.08
25 -0.15
26 -0.15
27 -0.15
28 -0.15
29 0.08
3 -0.68
30 -0.15
31 -0.15
32 0.08
4 -0.68
42 0.4
43 0.4
44 0.4
45 0.4
46 0.15
47 0.15
48 0.15
49 0.15
5 -0.68
50 0.15
51 0.15
52 0.45
53 0.45
54 0.45
6 -0.16
7 -0.57
8 -0.53
9 -0.53

> <PUBCHEM_EFFECTIVE_ROTOR_COUNT>
5.2

> <PUBCHEM_PHARMACOPHORE_FEATURES>
18
1 1 acceptor
1 10 donor
1 2 acceptor
1 2 donor
1 3 acceptor
1 3 donor
1 4 acceptor
1 4 donor
1 5 acceptor
1 5 donor
1 6 acceptor
1 7 acceptor
1 8 donor
1 9 donor
6 11 12 13 14 15 16 rings
6 21 23 24 25 28 29 rings
6 22 26 27 30 31 32 rings
6 6 18 19 20 21 23 rings

> <PUBCHEM_HEAVY_ATOM_COUNT>
32

> <PUBCHEM_ATOM_DEF_STEREO_COUNT>
3

> <PUBCHEM_ATOM_UDEF_STEREO_COUNT>
2

> <PUBCHEM_BOND_DEF_STEREO_COUNT>
0

> <PUBCHEM_BOND_UDEF_STEREO_COUNT>
0

> <PUBCHEM_ISOTOPIC_ATOM_COUNT>
0

> <PUBCHEM_COMPONENT_COUNT>
1

> <PUBCHEM_CACTVS_TAUTO_COUNT>
-1

> <PUBCHEM_CONFORMER_ID>
09B6E7F500000001

> <PUBCHEM_MMFF94_ENERGY>
102.1803

> <PUBCHEM_FEATURE_SELFOVERLAP>
91.404

> <PUBCHEM_SHAPE_FINGERPRINT>
10190108 129 17834398196452389591
10675989 125 18411706499830890168
10693767 8 17917419973853722367
10930396 42 18197190673998985608
10940486 97 17912641303066620535
1100329 8 17981324487508239777
11135609 187 18337673117451515084
11445158 3 18267851814438146679
11578080 2 17026320684506278563
12035759 4 18201443540912375387
12124843 1 18269296607260606876
12160290 23 17323492555392163179
133893 2 18267882609046936787
13540713 5 18201439122171905505
1361 2 18336548308339473052
140371 6 17625540086818025603
14068700 675 18198627640916829572
14114211 68 18263656202688656133
14117953 113 17116353971024889389
14784336 7 18130787832932682888
14931854 50 18340782485274670132
15082195 135 18264750118306822877
15324884 4 16691332808038173840
15420108 30 17191529810352037248
15439362 3 18335139760903558341
15475509 35 12606840436250356941
15705408 1 18263928747948461030
15950262 2 15142685846066779470
1813 80 18049708634203788299
18681886 176 18131343090488900058
19319366 153 18269547398579893423
20775438 99 15969033984504157815
21033648 144 17822568429766455469
21033648 29 18051128386977366713
21133410 230 17610096655368822882
21344244 246 18411700963507224054
21927370 108 17832158121007717258
22149856 69 18267875055318158907
22393880 68 18342733001591151685
22899556 105 18343026579601457095
23366157 5 18334852775884610379
23559900 14 17984702483128830728
238 59 18411145761468712722
24771293 8 18197204863959417242
25147074 1 18129945568919200505
255183 451 18127408951980565183
27425 322 16662050468317067716
3004659 81 18412265047579703836
3298306 158 18411141367754169830
340366 18 17969793071449468636
4017518 198 18271528697992070438
4046055 25 17764022472013801718
4058900 60 18187940511926828038
4066623 53 17463676607278798805
4280585 95 17906162949958802067
474 4 18261108608213369205
484989 97 18193849355575342915
5265222 85 18263099854279837028
6138700 20 18339367362455230750
6669772 16 17630029693020225672
6700243 42 16979851836162995790
6898599 12 17540266762230717052
9981440 41 18264208182762776075

> <PUBCHEM_SHAPE_MULTIPOLES>
599.85
10.75
5.5
1.35
12.52
3.36
0.17
-3.57
-5.12
-7.35
0.29
-0.46
-0.14
-1.55

> <PUBCHEM_SHAPE_SELFOVERLAP>
1316.752

> <PUBCHEM_SHAPE_VOLUME>
321.1

> <PUBCHEM_COORDINATE_TYPE>
2
5
10

$$$$
