91746673
  -OEChem-04052509273D

 40 40  0     1  0  0  0  0  0999 V2000
   -0.9168    2.0486   -1.8725 O   0  0  0  0  0  0  0  0  0  0  0  0
   -1.5132   -0.4871    1.5776 O   0  0  0  0  0  0  0  0  0  0  0  0
   -1.5881   -0.0086   -0.7735 C   0  0  2  0  0  0  0  0  0  0  0  0
    0.8003   -0.5802   -0.0044 C   0  0  2  0  0  0  0  0  0  0  0  0
   -0.3146   -0.8293   -1.0345 C   0  0  0  0  0  0  0  0  0  0  0  0
   -1.2689    1.4849   -0.6078 C   0  0  1  0  0  0  0  0  0  0  0  0
    1.1260    0.9276    0.1289 C   0  0  1  0  0  0  0  0  0  0  0  0
   -0.1484    1.7504    0.4000 C   0  0  0  0  0  0  0  0  0  0  0  0
   -2.3609   -0.5529    0.4318 C   0  0  0  0  0  0  0  0  0  0  0  0
    2.0032   -1.3901   -0.4024 C   0  0  0  0  0  0  0  0  0  0  0  0
   -3.6090    0.2851    0.6972 C   0  0  0  0  0  0  0  0  0  0  0  0
   -2.7299   -2.0170    0.2119 C   0  0  0  0  0  0  0  0  0  0  0  0
    2.1259    1.2044    1.2207 C   0  0  0  0  0  0  0  0  0  0  0  0
    2.4177   -2.4711    0.5514 C   0  0  0  0  0  0  0  0  0  0  0  0
    2.6675   -1.1591   -1.5444 C   0  0  0  0  0  0  0  0  0  0  0  0
    3.3090    1.7945    1.0199 C   0  0  0  0  0  0  0  0  0  0  0  0
   -2.2206   -0.1160   -1.6668 H   0  0  0  0  0  0  0  0  0  0  0  0
    0.5015   -0.9609    0.9748 H   0  0  0  0  0  0  0  0  0  0  0  0
    0.0408   -0.5347   -2.0324 H   0  0  0  0  0  0  0  0  0  0  0  0
   -0.5255   -1.8996   -1.1280 H   0  0  0  0  0  0  0  0  0  0  0  0
   -2.1517    2.0533   -0.3077 H   0  0  0  0  0  0  0  0  0  0  0  0
    1.5335    1.2902   -0.8254 H   0  0  0  0  0  0  0  0  0  0  0  0
   -0.5032    1.5946    1.4241 H   0  0  0  0  0  0  0  0  0  0  0  0
    0.1201    2.8154    0.3486 H   0  0  0  0  0  0  0  0  0  0  0  0
   -4.1973    0.4452   -0.2121 H   0  0  0  0  0  0  0  0  0  0  0  0
   -3.3766    1.2494    1.1605 H   0  0  0  0  0  0  0  0  0  0  0  0
   -4.2585   -0.2181    1.4243 H   0  0  0  0  0  0  0  0  0  0  0  0
   -3.2292   -2.1734   -0.7498 H   0  0  0  0  0  0  0  0  0  0  0  0
   -3.4126   -2.3619    0.9985 H   0  0  0  0  0  0  0  0  0  0  0  0
   -1.8651   -2.6841    0.2850 H   0  0  0  0  0  0  0  0  0  0  0  0
    1.8631    0.9031    2.2321 H   0  0  0  0  0  0  0  0  0  0  0  0
   -0.7444    2.9959   -1.7374 H   0  0  0  0  0  0  0  0  0  0  0  0
   -2.0130   -0.8241    2.3406 H   0  0  0  0  0  0  0  0  0  0  0  0
    2.6696   -2.0445    1.5277 H   0  0  0  0  0  0  0  0  0  0  0  0
    1.6051   -3.1928    0.6845 H   0  0  0  0  0  0  0  0  0  0  0  0
    3.2946   -3.0212    0.1938 H   0  0  0  0  0  0  0  0  0  0  0  0
    3.5342   -1.7531   -1.8162 H   0  0  0  0  0  0  0  0  0  0  0  0
    2.3755   -0.3790   -2.2386 H   0  0  0  0  0  0  0  0  0  0  0  0
    3.9853    1.9651    1.8503 H   0  0  0  0  0  0  0  0  0  0  0  0
    3.6236    2.1154    0.0331 H   0  0  0  0  0  0  0  0  0  0  0  0
  1  6  1  0  0  0  0
  1 32  1  0  0  0  0
  2  9  1  0  0  0  0
  2 33  1  0  0  0  0
  3  5  1  0  0  0  0
  3  6  1  0  0  0  0
  3  9  1  0  0  0  0
  3 17  1  0  0  0  0
  4  5  1  0  0  0  0
  4  7  1  0  0  0  0
  4 10  1  0  0  0  0
  4 18  1  0  0  0  0
  5 19  1  0  0  0  0
  5 20  1  0  0  0  0
  6  8  1  0  0  0  0
  6 21  1  0  0  0  0
  7  8  1  0  0  0  0
  7 13  1  0  0  0  0
  7 22  1  0  0  0  0
  8 23  1  0  0  0  0
  8 24  1  0  0  0  0
  9 11  1  0  0  0  0
  9 12  1  0  0  0  0
 10 14  1  0  0  0  0
 10 15  2  0  0  0  0
 11 25  1  0  0  0  0
 11 26  1  0  0  0  0
 11 27  1  0  0  0  0
 12 28  1  0  0  0  0
 12 29  1  0  0  0  0
 12 30  1  0  0  0  0
 13 16  2  0  0  0  0
 13 31  1  0  0  0  0
 14 34  1  0  0  0  0
 14 35  1  0  0  0  0
 14 36  1  0  0  0  0
 15 37  1  0  0  0  0
 15 38  1  0  0  0  0
 16 39  1  0  0  0  0
 16 40  1  0  0  0  0
M  END
> <PUBCHEM_COMPOUND_CID>
91746673

> <PUBCHEM_CONFORMER_RMSD>
0.6

> <PUBCHEM_CONFORMER_DIVERSEORDER>
3
15
34
45
29
30
35
20
47
36
13
43
33
42
26
27
12
40
1
52
25
5
48
31
49
39
37
24
51
9
46
28
41
17
18
38
2
50
6
10
11
21
4
8
44
7
19
14
16
23
32
22

> <PUBCHEM_MMFF94_PARTIAL_CHARGES>
18
1 -0.68
10 -0.28
13 -0.29
14 0.14
15 -0.3
16 -0.3
2 -0.68
31 0.15
32 0.4
33 0.4
37 0.15
38 0.15
39 0.15
4 0.14
40 0.15
6 0.28
7 0.14
9 0.28

> <PUBCHEM_EFFECTIVE_ROTOR_COUNT>
4.2

> <PUBCHEM_PHARMACOPHORE_FEATURES>
7
1 1 acceptor
1 1 donor
1 16 hydrophobe
1 2 acceptor
1 2 donor
3 9 11 12 hydrophobe
6 3 4 5 6 7 8 rings

> <PUBCHEM_HEAVY_ATOM_COUNT>
16

> <PUBCHEM_ATOM_DEF_STEREO_COUNT>
3

> <PUBCHEM_ATOM_UDEF_STEREO_COUNT>
1

> <PUBCHEM_BOND_DEF_STEREO_COUNT>
0

> <PUBCHEM_BOND_UDEF_STEREO_COUNT>
0

> <PUBCHEM_ISOTOPIC_ATOM_COUNT>
0

> <PUBCHEM_COMPONENT_COUNT>
1

> <PUBCHEM_CACTVS_TAUTO_COUNT>
1

> <PUBCHEM_CONFORMER_ID>
0577F17100000003

> <PUBCHEM_MMFF94_ENERGY>
49.1746

> <PUBCHEM_FEATURE_SELFOVERLAP>
35.521

> <PUBCHEM_SHAPE_FINGERPRINT>
10863032 1 17775575268487856947
10980938 120 17988646336567917720
12382932 28 18342172331869251713
12423570 1 18264757938613716621
12716301 132 17752479863495953785
13140716 1 18413392020933017003
13380536 127 16950564354821963180
13380536 53 18261387905351861245
14115302 16 17755021904287902510
14178342 30 18264494069019240971
14787075 74 16624329612822599539
15207287 21 17752750592332439619
15219456 202 18411129212780366384
15309172 13 18053931025263538240
15775835 57 17845653779981663272
161256 15 18341618109421250924
16945 1 17841994687052151647
18380122 1 18336817697352006992
19049666 15 18191012409506401672
19784866 170 18335701697302765664
20511035 2 18270391681586207036
21061003 4 17986961743278973318
21501502 16 18342454803236332729
21524375 3 17913473921226568944
22802520 49 18189889816640065508
23526113 38 17763164852800899655
23557571 272 17531234059011161900
23559900 14 18041560235271459534
2748010 2 18340757153004033620
31174 14 18343302539496403722
3250762 1 18265038163860406628
528862 383 18131349738960663098
568465 68 17979926225796306584
5845 1 18113617923798733021
598444 67 18118969087950733983
7364860 26 17775011193337438822
81228 2 17894909590599004477

> <PUBCHEM_SHAPE_MULTIPOLES>
317.53
4.94
2.48
1.41
0.59
0.24
-0.32
0.66
1.29
-1.32
0.07
-0.12
-0.24
1.01

> <PUBCHEM_SHAPE_SELFOVERLAP>
634.864

> <PUBCHEM_SHAPE_VOLUME>
186.7

> <PUBCHEM_COORDINATE_TYPE>
2
5
10

$$$$
