16655064
  -OEChem-04052509163D

 30 32  0     1  0  0  0  0  0999 V2000
    0.8803    1.8085    0.4609 O   0  0  0  0  0  0  0  0  0  0  0  0
   -1.2247   -1.0908   -0.0505 O   0  0  0  0  0  0  0  0  0  0  0  0
   -4.5220    1.4142   -0.1784 O   0  0  0  0  0  0  0  0  0  0  0  0
   -2.6031   -2.8695    0.2680 O   0  0  0  0  0  0  0  0  0  0  0  0
    1.3271    0.4629    0.6725 C   0  0  1  0  0  0  0  0  0  0  0  0
    0.3283    0.8008   -0.3960 C   0  0  1  0  0  0  0  0  0  0  0  0
    2.7271    0.1570    0.3032 C   0  0  0  0  0  0  0  0  0  0  0  0
   -1.0591    0.3129   -0.2469 C   0  0  0  0  0  0  0  0  0  0  0  0
    3.1043   -1.1571    0.0263 C   0  0  0  0  0  0  0  0  0  0  0  0
    3.6703    1.1825    0.2342 C   0  0  0  0  0  0  0  0  0  0  0  0
   -2.1375    1.1118   -0.2853 C   0  0  0  0  0  0  0  0  0  0  0  0
   -3.4502    0.5496   -0.1302 C   0  0  0  0  0  0  0  0  0  0  0  0
    4.4244   -1.4459   -0.3194 C   0  0  0  0  0  0  0  0  0  0  0  0
    4.9904    0.8937   -0.1116 C   0  0  0  0  0  0  0  0  0  0  0  0
   -2.4580   -1.6635    0.1000 C   0  0  0  0  0  0  0  0  0  0  0  0
    5.3674   -0.4205   -0.3885 C   0  0  0  0  0  0  0  0  0  0  0  0
   -3.6240   -0.7617    0.0531 C   0  0  0  0  0  0  0  0  0  0  0  0
   -5.7409    0.7152   -0.0116 C   0  0  0  0  0  0  0  0  0  0  0  0
    0.9572   -0.0101    1.5784 H   0  0  0  0  0  0  0  0  0  0  0  0
    0.6668    0.8089   -1.4271 H   0  0  0  0  0  0  0  0  0  0  0  0
    2.3770   -1.9634    0.0773 H   0  0  0  0  0  0  0  0  0  0  0  0
    3.4020    2.2126    0.4523 H   0  0  0  0  0  0  0  0  0  0  0  0
   -2.0424    2.1822   -0.4329 H   0  0  0  0  0  0  0  0  0  0  0  0
    4.7180   -2.4691   -0.5348 H   0  0  0  0  0  0  0  0  0  0  0  0
    5.7254    1.6916   -0.1639 H   0  0  0  0  0  0  0  0  0  0  0  0
    6.3953   -0.6454   -0.6573 H   0  0  0  0  0  0  0  0  0  0  0  0
   -4.5632   -1.2845    0.1798 H   0  0  0  0  0  0  0  0  0  0  0  0
   -6.5393    1.4651   -0.0614 H   0  0  0  0  0  0  0  0  0  0  0  0
   -5.8340    0.2566    0.9805 H   0  0  0  0  0  0  0  0  0  0  0  0
   -5.9451    0.0177   -0.8331 H   0  0  0  0  0  0  0  0  0  0  0  0
  1  5  1  0  0  0  0
  1  6  1  0  0  0  0
  2  8  1  0  0  0  0
  2 15  1  0  0  0  0
  3 12  1  0  0  0  0
  3 18  1  0  0  0  0
  4 15  2  0  0  0  0
  5  6  1  0  0  0  0
  5  7  1  0  0  0  0
  5 19  1  0  0  0  0
  6  8  1  0  0  0  0
  6 20  1  0  0  0  0
  7  9  2  0  0  0  0
  7 10  1  0  0  0  0
  8 11  2  0  0  0  0
  9 13  1  0  0  0  0
  9 21  1  0  0  0  0
 10 14  2  0  0  0  0
 10 22  1  0  0  0  0
 11 12  1  0  0  0  0
 11 23  1  0  0  0  0
 12 17  2  0  0  0  0
 13 16  2  0  0  0  0
 13 24  1  0  0  0  0
 14 16  1  0  0  0  0
 14 25  1  0  0  0  0
 15 17  1  0  0  0  0
 16 26  1  0  0  0  0
 17 27  1  0  0  0  0
 18 28  1  0  0  0  0
 18 29  1  0  0  0  0
 18 30  1  0  0  0  0
M  END
> <PUBCHEM_COMPOUND_CID>
16655064

> <PUBCHEM_CONFORMER_RMSD>
0.6

> <PUBCHEM_CONFORMER_DIVERSEORDER>
1
14
15
12
13
11
18
3
6
8
10
4
5
2
17
16
7
9

> <PUBCHEM_MMFF94_PARTIAL_CHARGES>
27
1 -0.3
10 -0.15
11 -0.15
12 0.08
13 -0.15
14 -0.15
15 0.71
16 -0.15
17 -0.14
18 0.28
19 0.1
2 -0.23
20 0.1
21 0.15
22 0.15
23 0.15
24 0.15
25 0.15
26 0.15
27 0.15
3 -0.36
4 -0.57
5 0.08
6 0.09
7 -0.03
8 0.04
9 -0.15

> <PUBCHEM_EFFECTIVE_ROTOR_COUNT>
3.6

> <PUBCHEM_PHARMACOPHORE_FEATURES>
5
1 1 acceptor
1 3 acceptor
1 4 acceptor
6 2 8 11 12 15 17 rings
6 7 9 10 13 14 16 rings

> <PUBCHEM_HEAVY_ATOM_COUNT>
18

> <PUBCHEM_ATOM_DEF_STEREO_COUNT>
2

> <PUBCHEM_ATOM_UDEF_STEREO_COUNT>
0

> <PUBCHEM_BOND_DEF_STEREO_COUNT>
0

> <PUBCHEM_BOND_UDEF_STEREO_COUNT>
0

> <PUBCHEM_ISOTOPIC_ATOM_COUNT>
0

> <PUBCHEM_COMPONENT_COUNT>
1

> <PUBCHEM_CACTVS_TAUTO_COUNT>
1

> <PUBCHEM_CONFORMER_ID>
00FE22D800000001

> <PUBCHEM_MMFF94_ENERGY>
52.9833

> <PUBCHEM_FEATURE_SELFOVERLAP>
25.373

> <PUBCHEM_SHAPE_FINGERPRINT>
10366900 7 17203610380285657586
10616163 171 18410856602874968318
11315181 36 17561084717753180440
12107183 9 17548984360034230824
12236239 1 17385725785439516901
124424 183 17775566450877995025
12500047 106 18411694417860435523
12555020 224 18411409597415632975
12596602 18 14261054490079707270
12616971 3 17022619810451266524
12788726 201 17916586410384101112
128620 24 12540694816532535161
13533116 47 17917711245133733266
13760787 19 18333731325505714482
14115302 16 18334864921761960140
14251731 8 18410857641987385589
14341114 176 18412269440909195960
14386348 63 18272655636415672694
14617045 38 18336272262180461614
15042514 8 18263086673288630915
15099037 51 18411135818861839941
15196674 1 18411136961165177366
15242433 33 18408604751526307094
15242439 84 18344144786952144936
15375358 24 18343865506803955998
17349148 13 12967127237428000505
17804303 29 18411138056429050805
17834072 33 18272366494605762564
17834074 16 18410575102196512390
1813 80 17022621983319772252
18186145 218 17821720650672144940
19141452 34 18409167727196862799
192875 21 12535340229412899299
19489759 90 12967130497503142557
200 152 17346594179813487837
20645477 56 18334572451953886085
20645477 70 18131351865365302254
20681677 155 18259983777568676435
20871999 31 18334012834710398606
21065198 57 18341330093003841024
21267235 1 18411145718344706258
21279426 13 18125441904202857725
21618674 57 17775567520467153441
221490 88 18265338489785871480
2215653 11 18273211967497235597
22485316 2 18410573998468928186
23175994 123 17561367287762149761
23402539 116 18130499778456314997
23402655 69 18408605872866160262
23559900 14 18342452673391717368
239999 70 18272092691390176046
26918003 58 18272367564595788776
2871803 45 18410013196289448134
300161 21 18410285922022163928
3004659 81 18334577894099495198
335352 9 18411136905071769807
3545911 37 18410293610082247556
4073 2 18187368783308316786
4214541 1 18410293626866256932
4921388 177 16878233059576934898
5104073 3 18411698824380746618
58051976 100 18336265725187067652
59755656 520 18341608201743959223
633830 44 17167865304822588032
77779 3 18410293640178472228
9709674 26 18264209295301905434

> <PUBCHEM_SHAPE_MULTIPOLES>
346.95
12.24
1.94
0.68
0.7
1.02
-0.01
-0.53
0.9
-0.84
-0.12
0.15
-0.03
0.48

> <PUBCHEM_SHAPE_SELFOVERLAP>
747.335

> <PUBCHEM_SHAPE_VOLUME>
190.2

> <PUBCHEM_COORDINATE_TYPE>
2
5
10

$$$$
