101635421
  -OEChem-04052509283D

 50 52  0     1  0  0  0  0  0999 V2000
    5.1278    0.7368    0.8391 O   0  0  0  0  0  0  0  0  0  0  0  0
   -1.1592    2.6404   -0.1900 O   0  0  0  0  0  0  0  0  0  0  0  0
    0.9477    0.5121   -0.3942 C   0  0  2  0  0  0  0  0  0  0  0  0
    3.3348   -0.6884   -0.0288 C   0  0  0  0  0  0  0  0  0  0  0  0
    1.7865   -0.7828   -0.1473 C   0  0  0  0  0  0  0  0  0  0  0  0
    1.4987    1.6361    0.5266 C   0  0  0  0  0  0  0  0  0  0  0  0
    3.7184    0.5091    0.8810 C   0  0  2  0  0  0  0  0  0  0  0  0
    3.0125    1.8016    0.5024 C   0  0  0  0  0  0  0  0  0  0  0  0
   -0.5913    0.3120   -0.1351 C   0  0  0  0  0  0  0  0  0  0  0  0
    1.0645    0.9196   -1.8835 C   0  0  0  0  0  0  0  0  0  0  0  0
    3.9782   -1.9509    0.6227 C   0  0  0  0  0  0  0  0  0  0  0  0
    3.9862   -0.5797   -1.4271 C   0  0  0  0  0  0  0  0  0  0  0  0
    1.1561   -1.9642   -0.0040 C   0  0  0  0  0  0  0  0  0  0  0  0
   -1.1109   -1.0655   -0.0434 C   0  0  0  0  0  0  0  0  0  0  0  0
   -1.5074    1.3113   -0.0515 C   0  0  0  0  0  0  0  0  0  0  0  0
   -0.2693   -2.1094   -0.0253 C   0  0  0  0  0  0  0  0  0  0  0  0
   -2.9954    1.0935    0.1373 C   0  0  0  0  0  0  0  0  0  0  0  0
   -2.5407   -1.3445    0.0145 C   0  0  0  0  0  0  0  0  0  0  0  0
   -3.4331   -0.3473    0.1087 C   0  0  0  0  0  0  0  0  0  0  0  0
   -4.9089   -0.5997    0.1907 C   0  0  0  0  0  0  0  0  0  0  0  0
   -5.6315    0.0247   -0.9996 C   0  0  0  0  0  0  0  0  0  0  0  0
   -5.4638   -0.0648    1.5067 C   0  0  0  0  0  0  0  0  0  0  0  0
    1.1857    1.4469    1.5630 H   0  0  0  0  0  0  0  0  0  0  0  0
    1.0881    2.6118    0.2505 H   0  0  0  0  0  0  0  0  0  0  0  0
    3.4654    0.2667    1.9221 H   0  0  0  0  0  0  0  0  0  0  0  0
    3.3551    2.1632   -0.4735 H   0  0  0  0  0  0  0  0  0  0  0  0
    3.2993    2.5910    1.2094 H   0  0  0  0  0  0  0  0  0  0  0  0
    0.8458    0.0739   -2.5469 H   0  0  0  0  0  0  0  0  0  0  0  0
    0.3673    1.7235   -2.1461 H   0  0  0  0  0  0  0  0  0  0  0  0
    2.0529    1.2986   -2.1448 H   0  0  0  0  0  0  0  0  0  0  0  0
    5.0548   -1.8175    0.7824 H   0  0  0  0  0  0  0  0  0  0  0  0
    3.8691   -2.8376   -0.0126 H   0  0  0  0  0  0  0  0  0  0  0  0
    3.5326   -2.1685    1.6005 H   0  0  0  0  0  0  0  0  0  0  0  0
    5.0646   -0.7750   -1.3817 H   0  0  0  0  0  0  0  0  0  0  0  0
    3.8808    0.4110   -1.8713 H   0  0  0  0  0  0  0  0  0  0  0  0
    3.5559   -1.3101   -2.1222 H   0  0  0  0  0  0  0  0  0  0  0  0
    1.6902   -2.8928    0.1597 H   0  0  0  0  0  0  0  0  0  0  0  0
   -0.6368   -3.1313    0.0323 H   0  0  0  0  0  0  0  0  0  0  0  0
   -3.5051    1.6447   -0.6609 H   0  0  0  0  0  0  0  0  0  0  0  0
   -3.2768    1.5492    1.0935 H   0  0  0  0  0  0  0  0  0  0  0  0
    5.3277    1.4605    1.4570 H   0  0  0  0  0  0  0  0  0  0  0  0
   -2.8719   -2.3790   -0.0032 H   0  0  0  0  0  0  0  0  0  0  0  0
   -5.0991   -1.6809    0.1643 H   0  0  0  0  0  0  0  0  0  0  0  0
   -1.9622    3.1792   -0.0887 H   0  0  0  0  0  0  0  0  0  0  0  0
   -5.6417    1.1190   -0.9598 H   0  0  0  0  0  0  0  0  0  0  0  0
   -5.1767   -0.2810   -1.9485 H   0  0  0  0  0  0  0  0  0  0  0  0
   -6.6776   -0.3023   -1.0166 H   0  0  0  0  0  0  0  0  0  0  0  0
   -6.5078   -0.3756    1.6288 H   0  0  0  0  0  0  0  0  0  0  0  0
   -5.4487    1.0293    1.5550 H   0  0  0  0  0  0  0  0  0  0  0  0
   -4.9034   -0.4537    2.3643 H   0  0  0  0  0  0  0  0  0  0  0  0
  1  7  1  0  0  0  0
  1 41  1  0  0  0  0
  2 15  1  0  0  0  0
  2 44  1  0  0  0  0
  3  5  1  0  0  0  0
  3  6  1  0  0  0  0
  3  9  1  0  0  0  0
  3 10  1  0  0  0  0
  4  5  1  0  0  0  0
  4  7  1  0  0  0  0
  4 11  1  0  0  0  0
  4 12  1  0  0  0  0
  5 13  2  0  0  0  0
  6  8  1  0  0  0  0
  6 23  1  0  0  0  0
  6 24  1  0  0  0  0
  7  8  1  0  0  0  0
  7 25  1  0  0  0  0
  8 26  1  0  0  0  0
  8 27  1  0  0  0  0
  9 14  1  0  0  0  0
  9 15  2  0  0  0  0
 10 28  1  0  0  0  0
 10 29  1  0  0  0  0
 10 30  1  0  0  0  0
 11 31  1  0  0  0  0
 11 32  1  0  0  0  0
 11 33  1  0  0  0  0
 12 34  1  0  0  0  0
 12 35  1  0  0  0  0
 12 36  1  0  0  0  0
 13 16  1  0  0  0  0
 13 37  1  0  0  0  0
 14 16  2  0  0  0  0
 14 18  1  0  0  0  0
 15 17  1  0  0  0  0
 16 38  1  0  0  0  0
 17 19  1  0  0  0  0
 17 39  1  0  0  0  0
 17 40  1  0  0  0  0
 18 19  2  0  0  0  0
 18 42  1  0  0  0  0
 19 20  1  0  0  0  0
 20 21  1  0  0  0  0
 20 22  1  0  0  0  0
 20 43  1  0  0  0  0
 21 45  1  0  0  0  0
 21 46  1  0  0  0  0
 21 47  1  0  0  0  0
 22 48  1  0  0  0  0
 22 49  1  0  0  0  0
 22 50  1  0  0  0  0
M  END
> <PUBCHEM_COMPOUND_CID>
101635421

> <PUBCHEM_CONFORMER_RMSD>
0.6

> <PUBCHEM_CONFORMER_DIVERSEORDER>
2
3
5
4
1
6

> <PUBCHEM_MMFF94_PARTIAL_CHARGES>
19
1 -0.68
13 -0.15
15 -0.06
16 -0.15
17 0.28
18 -0.15
19 -0.28
2 -0.53
20 0.14
3 0.28
37 0.15
38 0.15
4 0.14
41 0.4
42 0.15
44 0.45
5 -0.28
7 0.28
9 -0.14

> <PUBCHEM_EFFECTIVE_ROTOR_COUNT>
2

> <PUBCHEM_PHARMACOPHORE_FEATURES>
8
1 1 acceptor
1 1 donor
1 2 donor
3 20 21 22 hydrophobe
3 4 11 12 hydrophobe
6 3 4 5 6 7 8 rings
6 3 5 9 13 14 16 rings
6 9 14 15 17 18 19 rings

> <PUBCHEM_HEAVY_ATOM_COUNT>
22

> <PUBCHEM_ATOM_DEF_STEREO_COUNT>
2

> <PUBCHEM_ATOM_UDEF_STEREO_COUNT>
0

> <PUBCHEM_BOND_DEF_STEREO_COUNT>
0

> <PUBCHEM_BOND_UDEF_STEREO_COUNT>
0

> <PUBCHEM_ISOTOPIC_ATOM_COUNT>
0

> <PUBCHEM_COMPONENT_COUNT>
1

> <PUBCHEM_CACTVS_TAUTO_COUNT>
58

> <PUBCHEM_CONFORMER_ID>
060ED55D00000002

> <PUBCHEM_MMFF94_ENERGY>
64.5514

> <PUBCHEM_FEATURE_SELFOVERLAP>
40.636

> <PUBCHEM_SHAPE_FINGERPRINT>
10 15 18336531825210039976
10366900 7 18335431144406497602
10967382 1 18411417340798308698
11132069 177 18410855490562308439
11796584 16 16081087082732466091
12011746 2 18411702097520319910
12236239 1 17240481420628737068
12251169 10 18410005572495495072
12403259 226 18266453218240385244
12403259 415 18410573963745602341
12633257 1 18268411590410073104
13140716 1 18264771149912007354
13583140 156 16878483727127400215
13675066 3 18114463448393213451
13862211 1 18410570674185768863
14178342 30 18118122472281715668
14223421 5 18268710498136765812
14341114 176 18412830178959358066
14341114 328 17489594450314091313
14787075 74 18201994469073064993
15196674 1 18339077094841298809
15536298 74 18272089413311971802
15788980 27 17603585253456760163
15848702 151 17632585915720488431
16945 1 18409445912571554950
17349148 13 18260269655250920423
17804303 29 18338520742189785230
1813 80 17313103042799419796
19591789 44 18266741277328393486
200 152 18202556277219163797
20028762 73 18059848467879717919
20510252 161 18271805683577898288
21033648 29 18263906835299849617
21267235 1 18410019805584974042
21279426 13 18265608784852077453
22182313 1 18188757366934438172
22854114 59 18413387639818006915
23184049 59 18410856581325843535
23402539 116 18271796973663575911
23559900 14 18271257117976152228
26918003 58 17894628175756649547
2748010 2 18194969762297829918
2871803 45 18336261262937579919
3286 77 18336259034187247818
335352 9 18411698777104821126
34797466 226 15338559461397812729
34934 24 18339071691815015166
350125 39 18410015403348990708
351380 180 18342734130871625227
4072396 5 18260816086391116243
465052 167 17240775007503010563
5104073 3 18338234847522935729
5283173 99 18042954382035997885
5374978 207 18409443683188142426
542803 24 16702304550987363915
59755656 215 18408885105311228239
69090 78 18130784585794773943
7495541 125 16009039427080029375
9709674 26 18341614879637895574

> <PUBCHEM_SHAPE_MULTIPOLES>
441.01
10.46
2.13
1.14
7.79
0.12
0.25
-0.75
-1.78
-1
-0.14
-0.13
0.15
0.28

> <PUBCHEM_SHAPE_SELFOVERLAP>
938.072

> <PUBCHEM_SHAPE_VOLUME>
244.1

> <PUBCHEM_COORDINATE_TYPE>
2
5
10

$$$$
