44566708
  -OEChem-04052509243D

 48 48  0     1  0  0  0  0  0999 V2000
   -2.2652   -0.8108    0.6299 O   0  0  0  0  0  0  0  0  0  0  0  0
   -3.0421    1.5768    0.4649 O   0  0  0  0  0  0  0  0  0  0  0  0
   -2.6907   -2.1598   -1.1966 O   0  0  0  0  0  0  0  0  0  0  0  0
   -0.7059    1.0275    0.5034 C   0  0  2  0  0  0  0  0  0  0  0  0
    1.4840   -0.9907    0.0181 C   0  0  1  0  0  0  0  0  0  0  0  0
    1.7841    0.4713    0.4715 C   0  0  2  0  0  0  0  0  0  0  0  0
    0.6884    1.4594    0.0301 C   0  0  0  0  0  0  0  0  0  0  0  0
   -1.0257   -0.4041    0.0509 C   0  0  1  0  0  0  0  0  0  0  0  0
    0.0642   -1.3858    0.4904 C   0  0  0  0  0  0  0  0  0  0  0  0
   -1.7642    2.0177    0.0084 C   0  0  0  0  0  0  0  0  0  0  0  0
    1.5887   -1.1714   -1.5120 C   0  0  0  0  0  0  0  0  0  0  0  0
    3.1266    0.9801    0.0226 C   0  0  0  0  0  0  0  0  0  0  0  0
    2.4689   -1.9415    0.6651 C   0  0  0  0  0  0  0  0  0  0  0  0
   -1.8002    2.0420   -1.5168 C   0  0  0  0  0  0  0  0  0  0  0  0
   -1.5005    3.4144    0.5652 C   0  0  0  0  0  0  0  0  0  0  0  0
    4.2789    0.7076    0.9434 C   0  0  0  0  0  0  0  0  0  0  0  0
    3.2842    1.6399   -1.1345 C   0  0  0  0  0  0  0  0  0  0  0  0
    3.2906   -2.7465   -0.0171 C   0  0  0  0  0  0  0  0  0  0  0  0
   -2.9985   -1.6959   -0.1070 C   0  0  0  0  0  0  0  0  0  0  0  0
   -4.2656   -2.0304    0.6200 C   0  0  0  0  0  0  0  0  0  0  0  0
   -0.7287    1.0330    1.6033 H   0  0  0  0  0  0  0  0  0  0  0  0
    1.7719    0.4952    1.5724 H   0  0  0  0  0  0  0  0  0  0  0  0
    0.6771    1.5372   -1.0564 H   0  0  0  0  0  0  0  0  0  0  0  0
    0.9370    2.4487    0.4311 H   0  0  0  0  0  0  0  0  0  0  0  0
   -1.0853   -0.4444   -1.0401 H   0  0  0  0  0  0  0  0  0  0  0  0
   -0.1888   -2.3960    0.1397 H   0  0  0  0  0  0  0  0  0  0  0  0
    0.0397   -1.4593    1.5879 H   0  0  0  0  0  0  0  0  0  0  0  0
    0.9188   -0.4861   -2.0423 H   0  0  0  0  0  0  0  0  0  0  0  0
    1.2860   -2.1788   -1.8257 H   0  0  0  0  0  0  0  0  0  0  0  0
    2.5892   -0.9734   -1.9117 H   0  0  0  0  0  0  0  0  0  0  0  0
    2.5078   -1.9658    1.7521 H   0  0  0  0  0  0  0  0  0  0  0  0
   -0.8831    2.4078   -1.9835 H   0  0  0  0  0  0  0  0  0  0  0  0
   -2.5941    2.7272   -1.8448 H   0  0  0  0  0  0  0  0  0  0  0  0
   -2.0795    1.0828   -1.9606 H   0  0  0  0  0  0  0  0  0  0  0  0
   -0.6215    3.8937    0.1248 H   0  0  0  0  0  0  0  0  0  0  0  0
   -1.3805    3.3880    1.6542 H   0  0  0  0  0  0  0  0  0  0  0  0
   -2.3573    4.0715    0.3724 H   0  0  0  0  0  0  0  0  0  0  0  0
   -3.7126    2.2034    0.1435 H   0  0  0  0  0  0  0  0  0  0  0  0
    4.0337    1.0071    1.9677 H   0  0  0  0  0  0  0  0  0  0  0  0
    4.5671   -0.3445    0.9453 H   0  0  0  0  0  0  0  0  0  0  0  0
    5.1669    1.2800    0.6514 H   0  0  0  0  0  0  0  0  0  0  0  0
    4.2691    1.9945   -1.4264 H   0  0  0  0  0  0  0  0  0  0  0  0
    2.4968    1.8375   -1.8486 H   0  0  0  0  0  0  0  0  0  0  0  0
    3.9646   -3.3929    0.5388 H   0  0  0  0  0  0  0  0  0  0  0  0
    3.3559   -2.8270   -1.0929 H   0  0  0  0  0  0  0  0  0  0  0  0
   -4.8620   -1.1254    0.7603 H   0  0  0  0  0  0  0  0  0  0  0  0
   -4.8468   -2.7426    0.0272 H   0  0  0  0  0  0  0  0  0  0  0  0
   -4.0298   -2.4899    1.5832 H   0  0  0  0  0  0  0  0  0  0  0  0
  1  8  1  0  0  0  0
  1 19  1  0  0  0  0
  2 10  1  0  0  0  0
  2 38  1  0  0  0  0
  3 19  2  0  0  0  0
  4  7  1  0  0  0  0
  4  8  1  0  0  0  0
  4 10  1  0  0  0  0
  4 21  1  0  0  0  0
  5  6  1  0  0  0  0
  5  9  1  0  0  0  0
  5 11  1  0  0  0  0
  5 13  1  0  0  0  0
  6  7  1  0  0  0  0
  6 12  1  0  0  0  0
  6 22  1  0  0  0  0
  7 23  1  0  0  0  0
  7 24  1  0  0  0  0
  8  9  1  0  0  0  0
  8 25  1  0  0  0  0
  9 26  1  0  0  0  0
  9 27  1  0  0  0  0
 10 14  1  0  0  0  0
 10 15  1  0  0  0  0
 11 28  1  0  0  0  0
 11 29  1  0  0  0  0
 11 30  1  0  0  0  0
 12 16  1  0  0  0  0
 12 17  2  0  0  0  0
 13 18  2  0  0  0  0
 13 31  1  0  0  0  0
 14 32  1  0  0  0  0
 14 33  1  0  0  0  0
 14 34  1  0  0  0  0
 15 35  1  0  0  0  0
 15 36  1  0  0  0  0
 15 37  1  0  0  0  0
 16 39  1  0  0  0  0
 16 40  1  0  0  0  0
 16 41  1  0  0  0  0
 17 42  1  0  0  0  0
 17 43  1  0  0  0  0
 18 44  1  0  0  0  0
 18 45  1  0  0  0  0
 19 20  1  0  0  0  0
 20 46  1  0  0  0  0
 20 47  1  0  0  0  0
 20 48  1  0  0  0  0
M  END
> <PUBCHEM_COMPOUND_CID>
44566708

> <PUBCHEM_CONFORMER_RMSD>
0.8

> <PUBCHEM_CONFORMER_DIVERSEORDER>
1
10
5
16
9
12
15
7
3
8
4
6
11
14
2
13

> <PUBCHEM_MMFF94_PARTIAL_CHARGES>
20
1 -0.43
10 0.28
12 -0.28
13 -0.29
16 0.14
17 -0.3
18 -0.3
19 0.66
2 -0.68
20 0.06
3 -0.57
31 0.15
38 0.4
42 0.15
43 0.15
44 0.15
45 0.15
5 0.14
6 0.14
8 0.28

> <PUBCHEM_EFFECTIVE_ROTOR_COUNT>
6.2

> <PUBCHEM_PHARMACOPHORE_FEATURES>
6
1 18 hydrophobe
1 2 acceptor
1 2 donor
1 3 acceptor
3 10 14 15 hydrophobe
6 4 5 6 7 8 9 rings

> <PUBCHEM_HEAVY_ATOM_COUNT>
20

> <PUBCHEM_ATOM_DEF_STEREO_COUNT>
4

> <PUBCHEM_ATOM_UDEF_STEREO_COUNT>
0

> <PUBCHEM_BOND_DEF_STEREO_COUNT>
0

> <PUBCHEM_BOND_UDEF_STEREO_COUNT>
0

> <PUBCHEM_ISOTOPIC_ATOM_COUNT>
0

> <PUBCHEM_COMPONENT_COUNT>
1

> <PUBCHEM_CACTVS_TAUTO_COUNT>
1

> <PUBCHEM_CONFORMER_ID>
02A808B400000001

> <PUBCHEM_MMFF94_ENERGY>
65.8932

> <PUBCHEM_FEATURE_SELFOVERLAP>
30.446

> <PUBCHEM_SHAPE_FINGERPRINT>
104564 63 18339930410675642693
10616163 171 18412266129288573892
10756046 5 18335700486253519366
10863032 1 18340483361997816528
10967382 1 18193840572466910266
11132069 177 18130227189049229018
11578080 2 17314775314291558894
11680986 33 18267859485286003442
12173636 292 18125723387902007957
12553582 1 18268707401734669427
13140716 1 18267302036858686458
14178342 30 18338227185728878368
14223421 5 18411134736340099386
14614273 12 18259978262962770853
14787075 74 17752767115029760483
14790565 3 17977682114354668185
15442244 35 18193555571591204906
16945 1 18265898140977640506
17349148 13 18040710415883418362
17357779 13 18266444577087699205
17492 89 18409165476592704754
18186145 218 17977103457473515956
20510252 161 18341896354783541616
20511035 2 18128240200192703078
20671657 1 18191599549190745148
20691752 17 17749118759549773450
20905425 154 18342462534462133262
21421861 104 18186796954913949859
21501502 16 18410014303868634714
21524375 3 17611758803564314057
23184049 29 18337670815296017642
2334 1 18409730651369943746
23366157 5 18041002796209543218
23388829 49 18266743669593204125
23402539 116 18266169711496217262
23419403 2 16818197512950060274
23557571 272 18341058474966245932
23558518 356 18261396594033648250
23559900 14 18267578014583323522
23566358 2 18337101289715881502
2748010 2 18338800009584915142
2871803 45 18338518650335068230
312423 11 18335431144475367930
34934 24 18341330089136024651
350125 39 18338242574438171218
352729 6 18126001568648514097
58051976 100 18265619783978855887
589210 1 18337674109641123270
59755656 215 18411700998072385414
7164475 11 18408882923388343630
7364860 26 18269554940964094282
74978 22 18193276282641844072
7832392 63 18191867808410284402
81228 2 18260558813776502369
9709674 26 18199181793838335910

> <PUBCHEM_SHAPE_MULTIPOLES>
393.98
6.7
3.52
1.13
0.39
0.57
-0.39
-2.14
0.64
-1.47
-0.05
0.12
0.11
-0.1

> <PUBCHEM_SHAPE_SELFOVERLAP>
795.449

> <PUBCHEM_SHAPE_VOLUME>
229.9

> <PUBCHEM_COORDINATE_TYPE>
2
5
10

$$$$
