10684495
  -OEChem-04052509213D

 49 48  0     1  0  0  0  0  0999 V2000
    6.4697   -2.2359    0.2476 O   0  0  0  0  0  0  0  0  0  0  0  0
   -0.0346    1.4000    0.0855 C   0  0  0  0  0  0  0  0  0  0  0  0
   -1.2989    2.1745    0.4699 C   0  0  0  0  0  0  0  0  0  0  0  0
    1.1372    1.7576    1.0023 C   0  0  0  0  0  0  0  0  0  0  0  0
   -2.4915    1.8674   -0.4405 C   0  0  0  0  0  0  0  0  0  0  0  0
    2.4395    1.0254    0.6526 C   0  0  0  0  0  0  0  0  0  0  0  0
   -3.7578    2.6537   -0.0782 C   0  0  0  0  0  0  0  0  0  0  0  0
    3.6442    1.3227    1.5557 C   0  0  0  0  0  0  0  0  0  0  0  0
   -4.9304    2.3443   -1.0143 C   0  0  0  0  0  0  0  0  0  0  0  0
    4.9596    0.6606    1.2505 C   0  0  0  0  0  0  0  0  0  0  0  0
   -5.2981    0.9227   -0.9616 C   0  0  0  0  0  0  0  0  0  0  0  0
    5.2228   -0.2259    0.2783 C   0  0  0  0  0  0  0  0  0  0  0  0
   -5.8485   -1.6731   -0.6748 C   0  0  0  0  0  0  0  0  0  0  0  0
    6.5785   -0.8280    0.0533 C   0  0  2  0  0  0  0  0  0  0  0  0
   -5.6554   -2.1050    0.7816 C   0  0  0  0  0  0  0  0  0  0  0  0
   -5.5627   -0.2443   -0.8609 C   0  0  0  0  0  0  0  0  0  0  0  0
   -4.2098   -1.9477    1.2658 C   0  0  0  0  0  0  0  0  0  0  0  0
    7.0330   -0.5424   -1.3135 C   0  0  0  0  0  0  0  0  0  0  0  0
   -3.2818   -2.7024    0.4112 C   0  0  0  0  0  0  0  0  0  0  0  0
    7.4071   -0.3024   -2.4289 C   0  0  0  0  0  0  0  0  0  0  0  0
   -2.5219   -3.3220   -0.2816 C   0  0  0  0  0  0  0  0  0  0  0  0
    0.2319    1.6257   -0.9538 H   0  0  0  0  0  0  0  0  0  0  0  0
   -0.2315    0.3228    0.1427 H   0  0  0  0  0  0  0  0  0  0  0  0
   -1.5682    1.9382    1.5068 H   0  0  0  0  0  0  0  0  0  0  0  0
   -1.0894    3.2508    0.4332 H   0  0  0  0  0  0  0  0  0  0  0  0
    1.3175    2.8388    0.9575 H   0  0  0  0  0  0  0  0  0  0  0  0
    0.8682    1.5251    2.0401 H   0  0  0  0  0  0  0  0  0  0  0  0
   -2.6869    0.7901   -0.3925 H   0  0  0  0  0  0  0  0  0  0  0  0
   -2.2158    2.0928   -1.4783 H   0  0  0  0  0  0  0  0  0  0  0  0
    2.2419   -0.0542    0.6733 H   0  0  0  0  0  0  0  0  0  0  0  0
    2.7037    1.2735   -0.3837 H   0  0  0  0  0  0  0  0  0  0  0  0
   -4.0405    2.4253    0.9572 H   0  0  0  0  0  0  0  0  0  0  0  0
   -3.5437    3.7284   -0.1223 H   0  0  0  0  0  0  0  0  0  0  0  0
    3.3748    1.0625    2.5871 H   0  0  0  0  0  0  0  0  0  0  0  0
    3.8155    2.4068    1.5478 H   0  0  0  0  0  0  0  0  0  0  0  0
   -4.6681    2.6224   -2.0415 H   0  0  0  0  0  0  0  0  0  0  0  0
   -5.7913    2.9579   -0.7257 H   0  0  0  0  0  0  0  0  0  0  0  0
    5.7752    0.9567    1.9082 H   0  0  0  0  0  0  0  0  0  0  0  0
    4.4248   -0.5473   -0.3867 H   0  0  0  0  0  0  0  0  0  0  0  0
   -5.2380   -2.2747   -1.3562 H   0  0  0  0  0  0  0  0  0  0  0  0
   -6.8919   -1.8629   -0.9549 H   0  0  0  0  0  0  0  0  0  0  0  0
    7.3058   -0.4488    0.7799 H   0  0  0  0  0  0  0  0  0  0  0  0
   -6.3144   -1.5221    1.4374 H   0  0  0  0  0  0  0  0  0  0  0  0
   -5.9597   -3.1552    0.8766 H   0  0  0  0  0  0  0  0  0  0  0  0
   -3.9219   -0.8911    1.2918 H   0  0  0  0  0  0  0  0  0  0  0  0
   -4.1392   -2.3153    2.2961 H   0  0  0  0  0  0  0  0  0  0  0  0
    7.3617   -2.6144    0.1618 H   0  0  0  0  0  0  0  0  0  0  0  0
    7.7387   -0.0895   -3.4183 H   0  0  0  0  0  0  0  0  0  0  0  0
   -1.8479   -3.8711   -0.8966 H   0  0  0  0  0  0  0  0  0  0  0  0
  1 14  1  0  0  0  0
  1 47  1  0  0  0  0
  2  3  1  0  0  0  0
  2  4  1  0  0  0  0
  2 22  1  0  0  0  0
  2 23  1  0  0  0  0
  3  5  1  0  0  0  0
  3 24  1  0  0  0  0
  3 25  1  0  0  0  0
  4  6  1  0  0  0  0
  4 26  1  0  0  0  0
  4 27  1  0  0  0  0
  5  7  1  0  0  0  0
  5 28  1  0  0  0  0
  5 29  1  0  0  0  0
  6  8  1  0  0  0  0
  6 30  1  0  0  0  0
  6 31  1  0  0  0  0
  7  9  1  0  0  0  0
  7 32  1  0  0  0  0
  7 33  1  0  0  0  0
  8 10  1  0  0  0  0
  8 34  1  0  0  0  0
  8 35  1  0  0  0  0
  9 11  1  0  0  0  0
  9 36  1  0  0  0  0
  9 37  1  0  0  0  0
 10 12  2  0  0  0  0
 10 38  1  0  0  0  0
 11 16  3  0  0  0  0
 12 14  1  0  0  0  0
 12 39  1  0  0  0  0
 13 15  1  0  0  0  0
 13 16  1  0  0  0  0
 13 40  1  0  0  0  0
 13 41  1  0  0  0  0
 14 18  1  0  0  0  0
 14 42  1  0  0  0  0
 15 17  1  0  0  0  0
 15 43  1  0  0  0  0
 15 44  1  0  0  0  0
 17 19  1  0  0  0  0
 17 45  1  0  0  0  0
 17 46  1  0  0  0  0
 18 20  3  0  0  0  0
 19 21  3  0  0  0  0
 20 48  1  0  0  0  0
 21 49  1  0  0  0  0
M  END
> <PUBCHEM_COMPOUND_CID>
10684495

> <PUBCHEM_CONFORMER_RMSD>
1.2

> <PUBCHEM_CONFORMER_DIVERSEORDER>
1
97
69
149
143
246
9
131
70
154
200
294
383
263
207
43
80
162
262
370
271
354
401
282
56
47
289
100
151
93
365
427
237
17
344
170
18
124
6
421
243
425
300
233
414
34
287
386
57
5
22
276
37
428
182
83
415
40
283
144
24
174
133
67
222
193
113
321
66
278
168
220
172
218
351
86
381
335
127
334
198
304
2
238
290
305
418
288
29
395
176
284
109
424
301
141
116
417
196
259
98
392
11
339
164
103
145
60
359
62
160
373
146
51
376
250
75
341
377
41
38
235
320
367
366
19
104
332
343
216
281
382
78
299
297
52
350
248
329
94
102
20
327
292
405
231
368
389
322
138
211
266
431
195
16
430
54
406
225
123
349
293
257
42
244
347
210
404
76
254
201
371
12
175
81
183
118
194
71
280
331
340
298
169
129
137
89
309
203
35
150
184
74
302
177
99
3
240
45
291
219
236
87
227
190
277
253
21
117
358
63
413
258
355
171
353
416
336
77
85
310
387
432
122
130
55
44
115
204
209
121
73
23
61
152
136
361
91
105
380
312
68
46
221
396
199
27
28
410
64
330
7
265
135
224
140
363
92
165
147
205
179
306
192
316
181
403
13
157
101
260
390
112
384
342
268
308
346
379
360
142
317
128
369
189
286
84
106
272
58
352
96
270
239
285
385
364
14
158
247
391
186
223
139
217
59
407
82
261
311
159
242
95
53
166
4
267
345
402
245
362
178
39
50
324
338
36
208
126
264
422
90
411
229
256
134
79
26
230
375
255
8
252
323
110
180
295
15
49
372
303
318
107
426
314
32
241
319
25
88
226
394
10
400
232
155
397
275
125
408
214
65
234
114
48
153
409
163
161
148
132
420
212
213
429
328
187
296
251
412
108
31
356
423
249
273
191
388
111
72
399
274
120
325
202
33
333
206
188
167
119
197
30
279
156
374
393
173
357
215
378
228
337
185
313
269
348
419
398
307
326
315

> <PUBCHEM_MMFF94_PARTIAL_CHARGES>
19
1 -0.68
10 -0.29
11 -0.2
12 -0.29
13 0.2
14 0.62
16 -0.2
17 0.2
18 -0.2
19 -0.2
20 -0.18
21 -0.18
38 0.15
39 0.15
47 0.4
48 0.18
49 0.18
8 0.14
9 0.2

> <PUBCHEM_EFFECTIVE_ROTOR_COUNT>
11

> <PUBCHEM_PHARMACOPHORE_FEATURES>
5
1 1 acceptor
1 1 donor
1 20 hydrophobe
1 21 hydrophobe
5 13 15 16 17 19 hydrophobe

> <PUBCHEM_HEAVY_ATOM_COUNT>
21

> <PUBCHEM_ATOM_DEF_STEREO_COUNT>
0

> <PUBCHEM_ATOM_UDEF_STEREO_COUNT>
1

> <PUBCHEM_BOND_DEF_STEREO_COUNT>
1

> <PUBCHEM_BOND_UDEF_STEREO_COUNT>
0

> <PUBCHEM_ISOTOPIC_ATOM_COUNT>
0

> <PUBCHEM_COMPONENT_COUNT>
1

> <PUBCHEM_CACTVS_TAUTO_COUNT>
1

> <PUBCHEM_CONFORMER_ID>
00A3084F00000001

> <PUBCHEM_MMFF94_ENERGY>
4.5539

> <PUBCHEM_FEATURE_SELFOVERLAP>
25.374

> <PUBCHEM_SHAPE_FINGERPRINT>
10883706 89 11095622030972626852
11763389 116 18130793326333530846
12645989 146 18197495332703406855
14202776 33 17095517349589505205
14461889 52 18269537490618103232
14931854 50 18115286952933493471
15183329 4 16877656885593125874
15352257 5 18413108338384956690
20621476 21 18272369793109042821
2303208 19 18131064939853871416
25122255 55 18272088309537161728
445580 160 18411138047686167871
5104073 3 11527959928282676668
57307002 103 18058444486336774536
58902169 19 17458348507696587076
59755656 215 18411979157139352918

> <PUBCHEM_SHAPE_MULTIPOLES>
426.3
22.63
3.7
1.54
31.72
1.29
0.46
10.38
8.43
-6.17
-0.31
2.28
-0.04
2.71

> <PUBCHEM_SHAPE_SELFOVERLAP>
799.755

> <PUBCHEM_SHAPE_VOLUME>
259.9

> <PUBCHEM_COORDINATE_TYPE>
2
5
10

$$$$
