14138884
  -OEChem-04052509163D

 43 43  0     1  0  0  0  0  0999 V2000
   -2.0219    2.3290    0.3617 O   0  0  0  0  0  0  0  0  0  0  0  0
   -3.7864    0.5030    0.4064 O   0  0  0  0  0  0  0  0  0  0  0  0
   -1.4460   -0.0290    0.4643 C   0  0  1  0  0  0  0  0  0  0  0  0
    1.4130    0.7622   -0.0985 C   0  0  2  0  0  0  0  0  0  0  0  0
    1.0324   -0.6365    0.4790 C   0  0  1  0  0  0  0  0  0  0  0  0
   -0.3894   -1.0722    0.0769 C   0  0  0  0  0  0  0  0  0  0  0  0
   -1.0955    1.3513   -0.1105 C   0  0  2  0  0  0  0  0  0  0  0  0
    0.3177    1.7852    0.2886 C   0  0  0  0  0  0  0  0  0  0  0  0
   -2.8355   -0.4844    0.0099 C   0  0  0  0  0  0  0  0  0  0  0  0
    1.5848    0.7440   -1.6330 C   0  0  0  0  0  0  0  0  0  0  0  0
    2.0081   -1.7239    0.1212 C   0  0  0  0  0  0  0  0  0  0  0  0
    2.7190    1.2304    0.5080 C   0  0  0  0  0  0  0  0  0  0  0  0
   -3.2099   -1.8133    0.6618 C   0  0  0  0  0  0  0  0  0  0  0  0
   -2.8901   -0.5948   -1.5112 C   0  0  0  0  0  0  0  0  0  0  0  0
    3.1637   -1.9105    1.0591 C   0  0  0  0  0  0  0  0  0  0  0  0
    1.8533   -2.4834   -0.9733 C   0  0  0  0  0  0  0  0  0  0  0  0
    3.5826    2.0428   -0.1104 C   0  0  0  0  0  0  0  0  0  0  0  0
   -1.4660    0.0682    1.5599 H   0  0  0  0  0  0  0  0  0  0  0  0
    1.0105   -0.5576    1.5772 H   0  0  0  0  0  0  0  0  0  0  0  0
   -0.4414   -1.2371   -0.9984 H   0  0  0  0  0  0  0  0  0  0  0  0
   -0.6038   -2.0287    0.5677 H   0  0  0  0  0  0  0  0  0  0  0  0
   -1.1471    1.3672   -1.2015 H   0  0  0  0  0  0  0  0  0  0  0  0
    0.5262    2.7704   -0.1516 H   0  0  0  0  0  0  0  0  0  0  0  0
    0.3361    1.9574    1.3751 H   0  0  0  0  0  0  0  0  0  0  0  0
    2.4911    0.2157   -1.9518 H   0  0  0  0  0  0  0  0  0  0  0  0
    0.7420    0.2518   -2.1291 H   0  0  0  0  0  0  0  0  0  0  0  0
    1.6177    1.7546   -2.0580 H   0  0  0  0  0  0  0  0  0  0  0  0
    2.9260    0.9673    1.5430 H   0  0  0  0  0  0  0  0  0  0  0  0
   -4.2707   -2.0365    0.4945 H   0  0  0  0  0  0  0  0  0  0  0  0
   -2.6374   -2.6595    0.2713 H   0  0  0  0  0  0  0  0  0  0  0  0
   -3.0795   -1.7691    1.7490 H   0  0  0  0  0  0  0  0  0  0  0  0
   -2.7334    0.3596   -2.0209 H   0  0  0  0  0  0  0  0  0  0  0  0
   -3.9036   -0.8936   -1.8123 H   0  0  0  0  0  0  0  0  0  0  0  0
   -2.2215   -1.3482   -1.9331 H   0  0  0  0  0  0  0  0  0  0  0  0
   -1.9807    2.3360    1.3332 H   0  0  0  0  0  0  0  0  0  0  0  0
   -4.6664    0.2133    0.1110 H   0  0  0  0  0  0  0  0  0  0  0  0
    3.9136   -1.1257    0.9388 H   0  0  0  0  0  0  0  0  0  0  0  0
    2.8247   -1.9228    2.1001 H   0  0  0  0  0  0  0  0  0  0  0  0
    3.6706   -2.8660    0.8812 H   0  0  0  0  0  0  0  0  0  0  0  0
    2.5779   -3.2609   -1.1998 H   0  0  0  0  0  0  0  0  0  0  0  0
    1.0585   -2.3739   -1.6980 H   0  0  0  0  0  0  0  0  0  0  0  0
    4.4755    2.3671    0.4160 H   0  0  0  0  0  0  0  0  0  0  0  0
    3.4545    2.4242   -1.1145 H   0  0  0  0  0  0  0  0  0  0  0  0
  1  7  1  0  0  0  0
  1 35  1  0  0  0  0
  2  9  1  0  0  0  0
  2 36  1  0  0  0  0
  3  6  1  0  0  0  0
  3  7  1  0  0  0  0
  3  9  1  0  0  0  0
  3 18  1  0  0  0  0
  4  5  1  0  0  0  0
  4  8  1  0  0  0  0
  4 10  1  0  0  0  0
  4 12  1  0  0  0  0
  5  6  1  0  0  0  0
  5 11  1  0  0  0  0
  5 19  1  0  0  0  0
  6 20  1  0  0  0  0
  6 21  1  0  0  0  0
  7  8  1  0  0  0  0
  7 22  1  0  0  0  0
  8 23  1  0  0  0  0
  8 24  1  0  0  0  0
  9 13  1  0  0  0  0
  9 14  1  0  0  0  0
 10 25  1  0  0  0  0
 10 26  1  0  0  0  0
 10 27  1  0  0  0  0
 11 15  1  0  0  0  0
 11 16  2  0  0  0  0
 12 17  2  0  0  0  0
 12 28  1  0  0  0  0
 13 29  1  0  0  0  0
 13 30  1  0  0  0  0
 13 31  1  0  0  0  0
 14 32  1  0  0  0  0
 14 33  1  0  0  0  0
 14 34  1  0  0  0  0
 15 37  1  0  0  0  0
 15 38  1  0  0  0  0
 15 39  1  0  0  0  0
 16 40  1  0  0  0  0
 16 41  1  0  0  0  0
 17 42  1  0  0  0  0
 17 43  1  0  0  0  0
M  END
> <PUBCHEM_COMPOUND_CID>
14138884

> <PUBCHEM_CONFORMER_RMSD>
0.6

> <PUBCHEM_CONFORMER_DIVERSEORDER>
1
7
9
4
8
5
6
3
2

> <PUBCHEM_MMFF94_PARTIAL_CHARGES>
18
1 -0.68
11 -0.28
12 -0.29
15 0.14
16 -0.3
17 -0.3
2 -0.68
28 0.15
35 0.4
36 0.4
4 0.14
40 0.15
41 0.15
42 0.15
43 0.15
5 0.14
7 0.28
9 0.28

> <PUBCHEM_EFFECTIVE_ROTOR_COUNT>
4.2

> <PUBCHEM_PHARMACOPHORE_FEATURES>
7
1 1 acceptor
1 1 donor
1 17 hydrophobe
1 2 acceptor
1 2 donor
3 9 13 14 hydrophobe
6 3 4 5 6 7 8 rings

> <PUBCHEM_HEAVY_ATOM_COUNT>
17

> <PUBCHEM_ATOM_DEF_STEREO_COUNT>
4

> <PUBCHEM_ATOM_UDEF_STEREO_COUNT>
0

> <PUBCHEM_BOND_DEF_STEREO_COUNT>
0

> <PUBCHEM_BOND_UDEF_STEREO_COUNT>
0

> <PUBCHEM_ISOTOPIC_ATOM_COUNT>
0

> <PUBCHEM_COMPONENT_COUNT>
1

> <PUBCHEM_CACTVS_TAUTO_COUNT>
1

> <PUBCHEM_CONFORMER_ID>
00D7BE0400000001

> <PUBCHEM_MMFF94_ENERGY>
61.9472

> <PUBCHEM_FEATURE_SELFOVERLAP>
35.552

> <PUBCHEM_SHAPE_FINGERPRINT>
10967382 1 18266741470348181666
10980938 120 18340772631928810243
10989021 7 18338514132071631890
11578080 2 16951955173134007622
12553582 1 18120938295838275042
12932764 1 17560798870399373123
13140716 1 18266179431012496297
13380535 76 18263643025401918466
14181834 199 18334570231471592638
14223421 5 18410292505953788656
14576447 43 17984685977917191343
15219456 202 18187641423004445171
15442244 35 18266458694138909192
15536298 74 18413671292664831496
15775835 57 18272655691933645273
16945 1 18339637970304579504
17990270 104 18268993081552824210
18186145 218 17748824090591921387
19591789 44 17834116729215332746
20559304 39 18341334409440542850
20600515 1 17548690786793912960
20645476 183 17100320252824150028
20645477 70 18411974759119066431
21501502 16 18339922619320235216
21524375 3 18047473610689960196
23184049 29 18338234851754533754
232386 152 18267587901154797390
2334 1 18410573963687417608
23366157 5 18041284275359518586
23388829 49 18270382941485813478
23402539 116 18129099103347301012
23419403 2 16823824705944618480
23463225 33 18409162199621412632
23557571 272 16878213264657814047
23558518 356 18261116227264066449
23559900 14 18339634530615913890
2748010 2 18337107860931441549
34934 24 18342458175213018809
5104073 3 18409455761121404761
589210 1 18339925887816734080
5902787 121 18118679920793364410
633830 44 18200039584907744460
7364860 26 18342181033752528974
74978 22 18265053522573533049
7832392 63 17979637827443103496
81228 2 17621036461025284074
81539 233 18187361095068702814
9709674 26 18340205189656154455

> <PUBCHEM_SHAPE_MULTIPOLES>
338.11
5.88
2.68
1.12
2.07
0.33
-0.42
0.24
0.46
-1.56
0.13
-0.05
0.23
-0.23

> <PUBCHEM_SHAPE_SELFOVERLAP>
680.71

> <PUBCHEM_SHAPE_VOLUME>
198.5

> <PUBCHEM_COORDINATE_TYPE>
2
5
10

$$$$
