163186974
  -OEChem-04052509143D

 46 47  0     1  0  0  0  0  0999 V2000
    1.6143    2.4040    0.9653 O   0  0  0  0  0  0  0  0  0  0  0  0
   -1.0503    2.1301    0.6863 O   0  0  0  0  0  0  0  0  0  0  0  0
    2.2019   -1.9291    1.4107 O   0  0  0  0  0  0  0  0  0  0  0  0
    0.7245   -1.0973   -0.3571 C   0  0  2  0  0  0  0  0  0  0  0  0
    0.5336    0.3233    0.2810 C   0  0  1  0  0  0  0  0  0  0  0  0
    1.7061    1.3262    0.0128 C   0  0  2  0  0  0  0  0  0  0  0  0
   -0.8928    0.8833    0.0090 C   0  0  1  0  0  0  0  0  0  0  0  0
   -0.3782   -2.0248    0.2314 C   0  0  0  0  0  0  0  0  0  0  0  0
   -1.9892   -0.0844    0.5076 C   0  0  2  0  0  0  0  0  0  0  0  0
    2.1298   -1.6588    0.0081 C   0  0  1  0  0  0  0  0  0  0  0  0
   -1.7929   -1.5083   -0.0239 C   0  0  0  0  0  0  0  0  0  0  0  0
    3.0685    0.6701    0.3060 C   0  0  0  0  0  0  0  0  0  0  0  0
    3.2623   -0.6918   -0.3508 C   0  0  0  0  0  0  0  0  0  0  0  0
    0.5805   -1.1213   -1.8998 C   0  0  0  0  0  0  0  0  0  0  0  0
   -3.3944    0.4115    0.1492 C   0  0  0  0  0  0  0  0  0  0  0  0
    1.7022    1.9918   -1.3676 C   0  0  0  0  0  0  0  0  0  0  0  0
   -3.5737    0.4516   -1.3647 C   0  0  0  0  0  0  0  0  0  0  0  0
   -4.4522   -0.4761    0.7965 C   0  0  0  0  0  0  0  0  0  0  0  0
    0.5649    0.1790    1.3746 H   0  0  0  0  0  0  0  0  0  0  0  0
   -0.9878    1.0928   -1.0563 H   0  0  0  0  0  0  0  0  0  0  0  0
   -0.2490   -2.1283    1.3165 H   0  0  0  0  0  0  0  0  0  0  0  0
   -0.2828   -3.0364   -0.1838 H   0  0  0  0  0  0  0  0  0  0  0  0
   -1.9225   -0.1188    1.6050 H   0  0  0  0  0  0  0  0  0  0  0  0
    2.2916   -2.6146   -0.5052 H   0  0  0  0  0  0  0  0  0  0  0  0
   -1.9898   -1.5887   -1.0952 H   0  0  0  0  0  0  0  0  0  0  0  0
   -2.4807   -2.2029    0.4706 H   0  0  0  0  0  0  0  0  0  0  0  0
    3.1877    0.5600    1.3932 H   0  0  0  0  0  0  0  0  0  0  0  0
    3.8850    1.3393    0.0043 H   0  0  0  0  0  0  0  0  0  0  0  0
    3.3521   -0.5758   -1.4351 H   0  0  0  0  0  0  0  0  0  0  0  0
    4.2178   -1.1040   -0.0031 H   0  0  0  0  0  0  0  0  0  0  0  0
    1.4368   -0.6919   -2.4192 H   0  0  0  0  0  0  0  0  0  0  0  0
   -0.3092   -0.5954   -2.2547 H   0  0  0  0  0  0  0  0  0  0  0  0
    0.5046   -2.1554   -2.2586 H   0  0  0  0  0  0  0  0  0  0  0  0
   -3.5282    1.4271    0.5420 H   0  0  0  0  0  0  0  0  0  0  0  0
    0.7655    2.5293   -1.5472 H   0  0  0  0  0  0  0  0  0  0  0  0
    1.8658    1.2955   -2.1882 H   0  0  0  0  0  0  0  0  0  0  0  0
    2.4907    2.7522   -1.4301 H   0  0  0  0  0  0  0  0  0  0  0  0
    2.3697    3.0005    0.8263 H   0  0  0  0  0  0  0  0  0  0  0  0
   -0.9187    1.9736    1.6369 H   0  0  0  0  0  0  0  0  0  0  0  0
    3.0742   -2.3192    1.5904 H   0  0  0  0  0  0  0  0  0  0  0  0
   -2.8434    1.0804   -1.8771 H   0  0  0  0  0  0  0  0  0  0  0  0
   -4.5533    0.8916   -1.5921 H   0  0  0  0  0  0  0  0  0  0  0  0
   -3.5820   -0.5363   -1.8324 H   0  0  0  0  0  0  0  0  0  0  0  0
   -5.4393   -0.0098    0.6981 H   0  0  0  0  0  0  0  0  0  0  0  0
   -4.2613   -0.6107    1.8663 H   0  0  0  0  0  0  0  0  0  0  0  0
   -4.5245   -1.4622    0.3274 H   0  0  0  0  0  0  0  0  0  0  0  0
  1  6  1  0  0  0  0
  1 38  1  0  0  0  0
  2  7  1  0  0  0  0
  2 39  1  0  0  0  0
  3 10  1  0  0  0  0
  3 40  1  0  0  0  0
  4  5  1  0  0  0  0
  4  8  1  0  0  0  0
  4 10  1  0  0  0  0
  4 14  1  0  0  0  0
  5  6  1  0  0  0  0
  5  7  1  0  0  0  0
  5 19  1  0  0  0  0
  6 12  1  0  0  0  0
  6 16  1  0  0  0  0
  7  9  1  0  0  0  0
  7 20  1  0  0  0  0
  8 11  1  0  0  0  0
  8 21  1  0  0  0  0
  8 22  1  0  0  0  0
  9 11  1  0  0  0  0
  9 15  1  0  0  0  0
  9 23  1  0  0  0  0
 10 13  1  0  0  0  0
 10 24  1  0  0  0  0
 11 25  1  0  0  0  0
 11 26  1  0  0  0  0
 12 13  1  0  0  0  0
 12 27  1  0  0  0  0
 12 28  1  0  0  0  0
 13 29  1  0  0  0  0
 13 30  1  0  0  0  0
 14 31  1  0  0  0  0
 14 32  1  0  0  0  0
 14 33  1  0  0  0  0
 15 17  1  0  0  0  0
 15 18  1  0  0  0  0
 15 34  1  0  0  0  0
 16 35  1  0  0  0  0
 16 36  1  0  0  0  0
 16 37  1  0  0  0  0
 17 41  1  0  0  0  0
 17 42  1  0  0  0  0
 17 43  1  0  0  0  0
 18 44  1  0  0  0  0
 18 45  1  0  0  0  0
 18 46  1  0  0  0  0
M  END
> <PUBCHEM_COMPOUND_CID>
163186974

> <PUBCHEM_CONFORMER_RMSD>
0.6

> <PUBCHEM_CONFORMER_DIVERSEORDER>
1
2

> <PUBCHEM_MMFF94_PARTIAL_CHARGES>
9
1 -0.68
10 0.28
2 -0.68
3 -0.68
38 0.4
39 0.4
40 0.4
6 0.28
7 0.28

> <PUBCHEM_EFFECTIVE_ROTOR_COUNT>
2.6

> <PUBCHEM_PHARMACOPHORE_FEATURES>
9
1 1 acceptor
1 1 donor
1 2 acceptor
1 2 donor
1 3 acceptor
1 3 donor
3 15 17 18 hydrophobe
6 4 5 6 10 12 13 rings
6 4 5 7 8 9 11 rings

> <PUBCHEM_HEAVY_ATOM_COUNT>
18

> <PUBCHEM_ATOM_DEF_STEREO_COUNT>
6

> <PUBCHEM_ATOM_UDEF_STEREO_COUNT>
0

> <PUBCHEM_BOND_DEF_STEREO_COUNT>
0

> <PUBCHEM_BOND_UDEF_STEREO_COUNT>
0

> <PUBCHEM_ISOTOPIC_ATOM_COUNT>
0

> <PUBCHEM_COMPONENT_COUNT>
1

> <PUBCHEM_CACTVS_TAUTO_COUNT>
-1

> <PUBCHEM_CONFORMER_ID>
09BA091E00000001

> <PUBCHEM_MMFF94_ENERGY>
66.1723

> <PUBCHEM_FEATURE_SELFOVERLAP>
45.698

> <PUBCHEM_SHAPE_FINGERPRINT>
10219947 1 18201155464317878839
104564 63 18198347247386141376
10863032 1 18268148836747418666
10967382 1 18412265051241220232
10980938 120 18411418444510055763
11132069 177 18201429289963032211
11471102 20 18411979152833303413
11578080 2 17314494947268613572
11680986 33 18410295839075380770
11987891 36 18411421687289407601
12011746 2 18410010996891588062
12251169 10 18412262843633486771
12382932 28 18341048639412016953
12654215 9 18334849472611420645
12696612 119 18339932506292499168
13132413 78 18264209106349386836
13134695 92 18269541780530476948
13140716 1 18267301126262212306
13221675 6 18413672408966146130
13380535 21 18265342887568774763
13380535 76 18341613758397983323
13571099 22 18260541182798569447
13581323 91 17675927612057722807
13583140 156 16950829397612293961
13897977 150 18270115841722386105
14115302 16 17895211998940328095
14144814 61 18340770347164360587
14178342 30 17981035629018803041
14181834 199 18339910576168348125
14344429 50 18335991895257775743
15219456 202 18333447651600635333
15375462 189 18334576819624455051
15375462 478 18269825428955759658
15375462 6 17967817171406911117
15881359 60 17909230682168554814
16945 1 18341888576328288098
17990270 104 18200319792720837758
18186145 218 18335703819395995767
20473742 2 18040989644275618270
20511035 2 18269272542063116742
20559304 39 18410577249580005234
20606313 2 18413107247231102925
20645476 183 17682974545294399004
20645477 70 18341608197111648079
20691752 17 17822291348762678299
20905425 154 18341335569076412053
21249577 28 18411700967421720496
21249577 43 18409167718638485667
21501502 16 18267867362029463263
21524375 3 18124028202573793372
21639500 275 18271231816070713909
21730867 7 18186524314948262063
21947302 44 18411142467302344059
22112679 90 17702926137210152791
2255824 54 18260554445610126194
22854114 111 18333735740573780755
22892500 29 18261659407519629343
2334 1 17979637054243436562
23388829 49 18270677563114752641
23402539 116 18129090135123056671
23419403 2 17318410303706290526
23463225 33 18411140246767361345
23559900 14 18056489572348872596
23590187 169 18271516546479407349
2748010 2 18053105308967938488
3060560 45 17775573051989463357
3071541 158 18261392221735763828
34934 24 18342167912590600960
353137 74 18411419479797627801
44154327 71 18264783223223370789
449060 62 18341057409851481129
484985 159 15585371977355590546
53428517 54 18410857650893824825
53812653 166 18411419556927548146
53812654 25 18270946956654479762
57483677 104 18341330097230191256
5845 1 17767140708437876784
5939293 188 18343581832661662488
7364860 26 18343022215861104736
81228 2 17402897721760723552
9999458 23 17967821595117620526

> <PUBCHEM_SHAPE_MULTIPOLES>
352.82
5.84
2.34
1.25
4.8
0.34
0.44
0.06
-0.39
-1.28
-0.25
-0.02
0
-0.01

> <PUBCHEM_SHAPE_SELFOVERLAP>
720.003

> <PUBCHEM_SHAPE_VOLUME>
202.6

> <PUBCHEM_COORDINATE_TYPE>
2
5
10

$$$$
