71587071
  -OEChem-04052509153D

 49 52  0     1  0  0  0  0  0999 V2000
    3.3848    1.9179   -1.3677 O   0  5  0  0  0  0  0  0  0  0  0  0
   -1.3535   -2.3228   -0.4402 O   0  0  0  0  0  0  0  0  0  0  0  0
    0.6819   -4.0221   -0.2333 O   0  0  0  0  0  0  0  0  0  0  0  0
   -2.7386   -0.9483    0.9197 O   0  0  0  0  0  0  0  0  0  0  0  0
   -4.6731    0.8653    0.6672 O   0  0  0  0  0  0  0  0  0  0  0  0
    3.1272    1.9650   -0.0213 N   0  3  1  0  0  0  0  0  0  0  0  0
    1.6772    1.5541    0.2883 C   0  0  2  0  0  0  0  0  0  0  0  0
    1.4124    0.0589    0.1346 C   0  0  0  0  0  0  0  0  0  0  0  0
    4.0585    1.0213    0.7123 C   0  0  0  0  0  0  0  0  0  0  0  0
    0.6536    2.3678   -0.5273 C   0  0  0  0  0  0  0  0  0  0  0  0
    3.9105   -0.4097    0.2205 C   0  0  0  0  0  0  0  0  0  0  0  0
    2.4782   -0.8622    0.1486 C   0  0  0  0  0  0  0  0  0  0  0  0
    0.0695   -0.3942    0.0511 C   0  0  0  0  0  0  0  0  0  0  0  0
   -0.7611    1.9475   -0.2074 C   0  0  0  0  0  0  0  0  0  0  0  0
   -1.0393    0.5909    0.0683 C   0  0  0  0  0  0  0  0  0  0  0  0
    3.3999    3.3668    0.4634 C   0  0  0  0  0  0  0  0  0  0  0  0
    2.2123   -2.2311    0.0308 C   0  0  0  0  0  0  0  0  0  0  0  0
   -0.1546   -1.7778   -0.0661 C   0  0  0  0  0  0  0  0  0  0  0  0
    0.9040   -2.6856   -0.0763 C   0  0  0  0  0  0  0  0  0  0  0  0
   -1.7908    2.9008   -0.2335 C   0  0  0  0  0  0  0  0  0  0  0  0
   -2.3719    0.2454    0.3584 C   0  0  0  0  0  0  0  0  0  0  0  0
   -3.3908    1.2026    0.3472 C   0  0  0  0  0  0  0  0  0  0  0  0
   -3.1016    2.5282    0.0458 C   0  0  0  0  0  0  0  0  0  0  0  0
   -1.5553   -2.5329   -1.8334 C   0  0  0  0  0  0  0  0  0  0  0  0
    0.4762   -4.7868    0.9522 C   0  0  0  0  0  0  0  0  0  0  0  0
   -5.5155    0.4411   -0.4019 C   0  0  0  0  0  0  0  0  0  0  0  0
    1.5535    1.7810    1.3576 H   0  0  0  0  0  0  0  0  0  0  0  0
    3.8143    1.1116    1.7777 H   0  0  0  0  0  0  0  0  0  0  0  0
    5.0800    1.3808    0.5441 H   0  0  0  0  0  0  0  0  0  0  0  0
    0.8125    2.2347   -1.6049 H   0  0  0  0  0  0  0  0  0  0  0  0
    0.7666    3.4354   -0.3125 H   0  0  0  0  0  0  0  0  0  0  0  0
    4.4777   -1.0684    0.8888 H   0  0  0  0  0  0  0  0  0  0  0  0
    4.3471   -0.5037   -0.7815 H   0  0  0  0  0  0  0  0  0  0  0  0
    3.1352    3.4239    1.5218 H   0  0  0  0  0  0  0  0  0  0  0  0
    4.4648    3.5664    0.3126 H   0  0  0  0  0  0  0  0  0  0  0  0
    2.8119    4.0608   -0.1399 H   0  0  0  0  0  0  0  0  0  0  0  0
    3.0337   -2.9440    0.0110 H   0  0  0  0  0  0  0  0  0  0  0  0
   -1.5727    3.9400   -0.4662 H   0  0  0  0  0  0  0  0  0  0  0  0
   -3.8880    3.2776    0.0371 H   0  0  0  0  0  0  0  0  0  0  0  0
   -1.9885   -1.3032    1.4241 H   0  0  0  0  0  0  0  0  0  0  0  0
   -2.6108   -2.7727   -1.9906 H   0  0  0  0  0  0  0  0  0  0  0  0
   -0.9556   -3.3730   -2.1954 H   0  0  0  0  0  0  0  0  0  0  0  0
   -1.3191   -1.6302   -2.4065 H   0  0  0  0  0  0  0  0  0  0  0  0
    0.3070   -5.8278    0.6637 H   0  0  0  0  0  0  0  0  0  0  0  0
   -0.4035   -4.4265    1.4948 H   0  0  0  0  0  0  0  0  0  0  0  0
    1.3602   -4.7408    1.5962 H   0  0  0  0  0  0  0  0  0  0  0  0
   -6.4983    0.1985    0.0113 H   0  0  0  0  0  0  0  0  0  0  0  0
   -5.1070   -0.4536   -0.8824 H   0  0  0  0  0  0  0  0  0  0  0  0
   -5.6332    1.2425   -1.1381 H   0  0  0  0  0  0  0  0  0  0  0  0
  1  6  1  0  0  0  0
  2 18  1  0  0  0  0
  2 24  1  0  0  0  0
  3 19  1  0  0  0  0
  3 25  1  0  0  0  0
  4 21  1  0  0  0  0
  4 40  1  0  0  0  0
  5 22  1  0  0  0  0
  5 26  1  0  0  0  0
  6  7  1  0  0  0  0
  6  9  1  0  0  0  0
  6 16  1  0  0  0  0
  7  8  1  0  0  0  0
  7 10  1  0  0  0  0
  7 27  1  0  0  0  0
  8 12  1  0  0  0  0
  8 13  2  0  0  0  0
  9 11  1  0  0  0  0
  9 28  1  0  0  0  0
  9 29  1  0  0  0  0
 10 14  1  0  0  0  0
 10 30  1  0  0  0  0
 10 31  1  0  0  0  0
 11 12  1  0  0  0  0
 11 32  1  0  0  0  0
 11 33  1  0  0  0  0
 12 17  2  0  0  0  0
 13 15  1  0  0  0  0
 13 18  1  0  0  0  0
 14 15  2  0  0  0  0
 14 20  1  0  0  0  0
 15 21  1  0  0  0  0
 16 34  1  0  0  0  0
 16 35  1  0  0  0  0
 16 36  1  0  0  0  0
 17 19  1  0  0  0  0
 17 37  1  0  0  0  0
 18 19  2  0  0  0  0
 20 23  2  0  0  0  0
 20 38  1  0  0  0  0
 21 22  2  0  0  0  0
 22 23  1  0  0  0  0
 23 39  1  0  0  0  0
 24 41  1  0  0  0  0
 24 42  1  0  0  0  0
 24 43  1  0  0  0  0
 25 44  1  0  0  0  0
 25 45  1  0  0  0  0
 25 46  1  0  0  0  0
 26 47  1  0  0  0  0
 26 48  1  0  0  0  0
 26 49  1  0  0  0  0
M  CHG  2   1  -1   6   1
M  END
> <PUBCHEM_COMPOUND_CID>
71587071

> <PUBCHEM_CONFORMER_RMSD>
0.8

> <PUBCHEM_CONFORMER_DIVERSEORDER>
1
2

> <PUBCHEM_MMFF94_PARTIAL_CHARGES>
28
1 -0.75
10 0.14
11 0.14
12 -0.14
14 -0.14
16 0.26
17 -0.15
18 0.08
19 0.08
2 -0.36
20 -0.15
21 0.08
22 0.08
23 -0.15
24 0.28
25 0.28
26 0.28
3 -0.36
37 0.15
38 0.15
39 0.15
4 -0.53
40 0.45
5 -0.36
6 -0.02
7 0.4
8 -0.14
9 0.26

> <PUBCHEM_EFFECTIVE_ROTOR_COUNT>
3.8

> <PUBCHEM_PHARMACOPHORE_FEATURES>
9
1 1 anion
1 2 acceptor
1 3 acceptor
1 4 donor
1 5 acceptor
6 14 15 20 21 22 23 rings
6 6 7 8 9 11 12 rings
6 7 8 10 13 14 15 rings
6 8 12 13 17 18 19 rings

> <PUBCHEM_HEAVY_ATOM_COUNT>
26

> <PUBCHEM_ATOM_DEF_STEREO_COUNT>
1

> <PUBCHEM_ATOM_UDEF_STEREO_COUNT>
1

> <PUBCHEM_BOND_DEF_STEREO_COUNT>
0

> <PUBCHEM_BOND_UDEF_STEREO_COUNT>
0

> <PUBCHEM_ISOTOPIC_ATOM_COUNT>
0

> <PUBCHEM_COMPONENT_COUNT>
1

> <PUBCHEM_CACTVS_TAUTO_COUNT>
9

> <PUBCHEM_CONFORMER_ID>
044454FF00000001

> <PUBCHEM_MMFF94_ENERGY>
127.8097

> <PUBCHEM_FEATURE_SELFOVERLAP>
45.763

> <PUBCHEM_SHAPE_FINGERPRINT>
10074138 170 17906422757273274568
10090160 65 18408878534374878671
10411042 1 17546165204032234667
10616163 171 18408609162231048833
10871710 139 18052256490149067493
10906281 52 18262539017524047937
10967382 1 18338798905599114968
1100329 8 18411978074949649026
11370993 70 18411695504313439144
11578080 2 13960265650718202280
12035759 4 18198315490603501847
12403259 226 17757834420708808317
12553582 1 16900469234881381974
12592029 89 18339084791507063641
12633257 1 17259063991982810747
12788726 201 17838611515348233262
13140716 1 18410006663090329250
13583140 156 17168685467203039608
138480 1 17906171746251777538
14178342 30 17833539473195535552
14223421 5 18192151482151988993
14787075 74 18059849601908851801
14790565 3 18338802328920606661
14863182 85 18261972807225965613
14866123 147 18411408523811290074
14955137 171 18265330604374161514
15042514 8 17976541938170855194
16728300 4 17245801798999266754
16945 1 18264775354605550314
17138139 8 17557394843057102023
17492 89 18122342381436132603
19591789 44 18411141333336097348
19930381 70 18193837042177924721
20028762 73 18272080608729690543
20739085 24 18189920671807062881
20905425 154 17761779468197367990
21041028 32 16968300894859758714
21197605 99 18338808935165857835
21524375 3 18343866606120190395
221490 88 17976827484465566299
22149856 69 18265074517529100913
2334 1 18266456697132097086
23366157 5 17971482792728689531
23558518 356 17908978047665329476
23559900 14 18193551160512144329
238 59 17758079671799911733
2748010 2 17690832364039999214
3091708 16 9118943154253767530
3178227 256 18266194862940585338
335352 9 18411418419436519492
350125 39 18409730668850746536
5104073 3 18193278486192644193
58807428 26 18339063939820831730
5939293 188 17834392324228730419
6438718 38 17700700819853636910
7364860 26 18195247719843914208
81228 2 17765700700323951146
9709674 26 18192155893484153467

> <PUBCHEM_SHAPE_MULTIPOLES>
500.74
7.32
5.06
0.94
5.28
4.23
-0.24
-4.52
0.68
-2.46
0.08
0.09
0.35
-0.43

> <PUBCHEM_SHAPE_SELFOVERLAP>
1100.65

> <PUBCHEM_SHAPE_VOLUME>
271.3

> <PUBCHEM_COORDINATE_TYPE>
2
5
10

$$$$
