163193028
  -OEChem-04052509243D

 86 90  0     1  0  0  0  0  0999 V2000
    0.6188    2.6595   -0.4697 O   0  0  0  0  0  0  0  0  0  0  0  0
    3.4550    2.6286   -0.4780 O   0  0  0  0  0  0  0  0  0  0  0  0
    5.9804    0.8830   -0.4133 O   0  0  0  0  0  0  0  0  0  0  0  0
    0.3146   -1.1273   -0.3321 C   0  0  2  0  0  0  0  0  0  0  0  0
    1.0462    0.2608   -0.1275 C   0  0  1  0  0  0  0  0  0  0  0  0
    2.6600    0.2873   -0.2437 C   0  0  2  0  0  0  0  0  0  0  0  0
   -1.2111   -0.9894    0.2602 C   0  0  1  0  0  0  0  0  0  0  0  0
    3.2328   -0.9478    0.5448 C   0  0  1  0  0  0  0  0  0  0  0  0
    1.0923   -2.2634    0.3806 C   0  0  0  0  0  0  0  0  0  0  0  0
   -1.9160    0.2310   -0.3715 C   0  0  0  0  0  0  0  0  0  0  0  0
   -3.4539    0.3142   -0.4008 C   0  0  1  0  0  0  0  0  0  0  0  0
    2.5894   -2.2707    0.0914 C   0  0  0  0  0  0  0  0  0  0  0  0
    4.8104   -1.0224    0.6621 C   0  0  0  0  0  0  0  0  0  0  0  0
    0.2928    1.3547   -0.9412 C   0  0  1  0  0  0  0  0  0  0  0  0
   -4.0812   -1.0479   -0.8237 C   0  0  1  0  0  0  0  0  0  0  0  0
   -2.0107   -2.3072    0.0130 C   0  0  0  0  0  0  0  0  0  0  0  0
    3.1961    1.5947    0.4744 C   0  0  1  0  0  0  0  0  0  0  0  0
   -3.5347   -2.1697    0.0895 C   0  0  0  0  0  0  0  0  0  0  0  0
    0.2615   -1.5063   -1.8472 C   0  0  0  0  0  0  0  0  0  0  0  0
   -1.2057    1.2381   -0.9179 C   0  0  0  0  0  0  0  0  0  0  0  0
    5.4406    0.3979    0.8124 C   0  0  2  0  0  0  0  0  0  0  0  0
    3.1234    0.2800   -1.7222 C   0  0  0  0  0  0  0  0  0  0  0  0
   -4.0729    0.9119    0.9146 C   0  0  2  0  0  0  0  0  0  0  0  0
    4.4397    1.4095    1.3617 C   0  0  0  0  0  0  0  0  0  0  0  0
   -1.2065   -0.7498    1.8009 C   0  0  0  0  0  0  0  0  0  0  0  0
   -5.6261   -1.0022   -0.7476 C   0  0  0  0  0  0  0  0  0  0  0  0
   -5.6231    0.9492    0.8408 C   0  0  1  0  0  0  0  0  0  0  0  0
   -6.1727   -0.4519    0.5585 C   0  0  0  0  0  0  0  0  0  0  0  0
    5.1450   -1.8004    1.9697 C   0  0  0  0  0  0  0  0  0  0  0  0
    5.4794   -1.8075   -0.4867 C   0  0  0  0  0  0  0  0  0  0  0  0
   -3.7440   -1.3609   -2.3055 C   0  0  0  0  0  0  0  0  0  0  0  0
   -3.5029    2.3071    1.2234 C   0  0  0  0  0  0  0  0  0  0  0  0
   -6.2766    1.4838    2.1209 C   0  0  0  0  0  0  0  0  0  0  0  0
    0.4597    3.6334   -1.4903 C   0  0  0  0  0  0  0  0  0  0  0  0
    0.8915    0.5147    0.9294 H   0  0  0  0  0  0  0  0  0  0  0  0
    2.8764   -0.8024    1.5782 H   0  0  0  0  0  0  0  0  0  0  0  0
    0.6765   -3.2408    0.1068 H   0  0  0  0  0  0  0  0  0  0  0  0
    0.9925   -2.1926    1.4657 H   0  0  0  0  0  0  0  0  0  0  0  0
   -3.7325    1.0266   -1.1940 H   0  0  0  0  0  0  0  0  0  0  0  0
    3.0206   -3.1131    0.6431 H   0  0  0  0  0  0  0  0  0  0  0  0
    2.7783   -2.4764   -0.9658 H   0  0  0  0  0  0  0  0  0  0  0  0
    0.5822    1.2649   -1.9936 H   0  0  0  0  0  0  0  0  0  0  0  0
   -1.6968   -3.0705    0.7371 H   0  0  0  0  0  0  0  0  0  0  0  0
   -1.7849   -2.7382   -0.9637 H   0  0  0  0  0  0  0  0  0  0  0  0
    2.4228    1.9929    1.1413 H   0  0  0  0  0  0  0  0  0  0  0  0
   -3.9823   -3.1311   -0.1948 H   0  0  0  0  0  0  0  0  0  0  0  0
   -3.8290   -2.0040    1.1311 H   0  0  0  0  0  0  0  0  0  0  0  0
   -0.4211   -0.8784   -2.4238 H   0  0  0  0  0  0  0  0  0  0  0  0
   -0.0510   -2.5446   -1.9971 H   0  0  0  0  0  0  0  0  0  0  0  0
    1.2289   -1.4361   -2.3358 H   0  0  0  0  0  0  0  0  0  0  0  0
   -1.7636    2.0432   -1.3889 H   0  0  0  0  0  0  0  0  0  0  0  0
    6.2934    0.3486    1.5008 H   0  0  0  0  0  0  0  0  0  0  0  0
    2.5722    0.9908   -2.3413 H   0  0  0  0  0  0  0  0  0  0  0  0
    3.0477   -0.6990   -2.1926 H   0  0  0  0  0  0  0  0  0  0  0  0
    4.1692    0.5684   -1.8294 H   0  0  0  0  0  0  0  0  0  0  0  0
   -3.8173    0.2714    1.7621 H   0  0  0  0  0  0  0  0  0  0  0  0
    4.9409    2.3769    1.4916 H   0  0  0  0  0  0  0  0  0  0  0  0
    4.1203    1.0818    2.3590 H   0  0  0  0  0  0  0  0  0  0  0  0
   -0.6098   -1.4842    2.3445 H   0  0  0  0  0  0  0  0  0  0  0  0
   -0.8437    0.2462    2.0730 H   0  0  0  0  0  0  0  0  0  0  0  0
   -2.2042   -0.8458    2.2337 H   0  0  0  0  0  0  0  0  0  0  0  0
   -6.0410   -2.0047   -0.9143 H   0  0  0  0  0  0  0  0  0  0  0  0
   -6.0140   -0.3752   -1.5623 H   0  0  0  0  0  0  0  0  0  0  0  0
   -5.9205    1.6118    0.0165 H   0  0  0  0  0  0  0  0  0  0  0  0
   -7.2672   -0.4152    0.4901 H   0  0  0  0  0  0  0  0  0  0  0  0
   -5.9377   -1.1303    1.3871 H   0  0  0  0  0  0  0  0  0  0  0  0
    4.7323   -1.2980    2.8517 H   0  0  0  0  0  0  0  0  0  0  0  0
    4.7513   -2.8213    1.9533 H   0  0  0  0  0  0  0  0  0  0  0  0
    6.2292   -1.8790    2.1141 H   0  0  0  0  0  0  0  0  0  0  0  0
    5.2477   -1.3935   -1.4701 H   0  0  0  0  0  0  0  0  0  0  0  0
    5.1728   -2.8590   -0.4935 H   0  0  0  0  0  0  0  0  0  0  0  0
    6.5706   -1.7990   -0.3776 H   0  0  0  0  0  0  0  0  0  0  0  0
   -2.6714   -1.3811   -2.5063 H   0  0  0  0  0  0  0  0  0  0  0  0
   -4.1740   -0.6053   -2.9736 H   0  0  0  0  0  0  0  0  0  0  0  0
   -4.1524   -2.3341   -2.6013 H   0  0  0  0  0  0  0  0  0  0  0  0
   -3.7443    3.0170    0.4254 H   0  0  0  0  0  0  0  0  0  0  0  0
   -2.4166    2.2827    1.3465 H   0  0  0  0  0  0  0  0  0  0  0  0
   -3.8955    2.7046    2.1636 H   0  0  0  0  0  0  0  0  0  0  0  0
    3.6668    3.4397    0.0144 H   0  0  0  0  0  0  0  0  0  0  0  0
    6.3656    1.7591   -0.2417 H   0  0  0  0  0  0  0  0  0  0  0  0
   -5.9218    0.9422    3.0042 H   0  0  0  0  0  0  0  0  0  0  0  0
   -7.3662    1.3783    2.0756 H   0  0  0  0  0  0  0  0  0  0  0  0
   -6.0702    2.5487    2.2624 H   0  0  0  0  0  0  0  0  0  0  0  0
    0.8172    4.5890   -1.0950 H   0  0  0  0  0  0  0  0  0  0  0  0
    1.0673    3.3891   -2.3677 H   0  0  0  0  0  0  0  0  0  0  0  0
   -0.5856    3.7692   -1.7770 H   0  0  0  0  0  0  0  0  0  0  0  0
  1 14  1  0  0  0  0
  1 34  1  0  0  0  0
  2 17  1  0  0  0  0
  2 79  1  0  0  0  0
  3 21  1  0  0  0  0
  3 80  1  0  0  0  0
  4  5  1  0  0  0  0
  4  7  1  0  0  0  0
  4  9  1  0  0  0  0
  4 19  1  0  0  0  0
  5  6  1  0  0  0  0
  5 14  1  0  0  0  0
  5 35  1  0  0  0  0
  6  8  1  0  0  0  0
  6 17  1  0  0  0  0
  6 22  1  0  0  0  0
  7 10  1  0  0  0  0
  7 16  1  0  0  0  0
  7 25  1  0  0  0  0
  8 12  1  0  0  0  0
  8 13  1  0  0  0  0
  8 36  1  0  0  0  0
  9 12  1  0  0  0  0
  9 37  1  0  0  0  0
  9 38  1  0  0  0  0
 10 11  1  0  0  0  0
 10 20  2  0  0  0  0
 11 15  1  0  0  0  0
 11 23  1  0  0  0  0
 11 39  1  0  0  0  0
 12 40  1  0  0  0  0
 12 41  1  0  0  0  0
 13 21  1  0  0  0  0
 13 29  1  0  0  0  0
 13 30  1  0  0  0  0
 14 20  1  0  0  0  0
 14 42  1  0  0  0  0
 15 18  1  0  0  0  0
 15 26  1  0  0  0  0
 15 31  1  0  0  0  0
 16 18  1  0  0  0  0
 16 43  1  0  0  0  0
 16 44  1  0  0  0  0
 17 24  1  0  0  0  0
 17 45  1  0  0  0  0
 18 46  1  0  0  0  0
 18 47  1  0  0  0  0
 19 48  1  0  0  0  0
 19 49  1  0  0  0  0
 19 50  1  0  0  0  0
 20 51  1  0  0  0  0
 21 24  1  0  0  0  0
 21 52  1  0  0  0  0
 22 53  1  0  0  0  0
 22 54  1  0  0  0  0
 22 55  1  0  0  0  0
 23 27  1  0  0  0  0
 23 32  1  0  0  0  0
 23 56  1  0  0  0  0
 24 57  1  0  0  0  0
 24 58  1  0  0  0  0
 25 59  1  0  0  0  0
 25 60  1  0  0  0  0
 25 61  1  0  0  0  0
 26 28  1  0  0  0  0
 26 62  1  0  0  0  0
 26 63  1  0  0  0  0
 27 28  1  0  0  0  0
 27 33  1  0  0  0  0
 27 64  1  0  0  0  0
 28 65  1  0  0  0  0
 28 66  1  0  0  0  0
 29 67  1  0  0  0  0
 29 68  1  0  0  0  0
 29 69  1  0  0  0  0
 30 70  1  0  0  0  0
 30 71  1  0  0  0  0
 30 72  1  0  0  0  0
 31 73  1  0  0  0  0
 31 74  1  0  0  0  0
 31 75  1  0  0  0  0
 32 76  1  0  0  0  0
 32 77  1  0  0  0  0
 32 78  1  0  0  0  0
 33 81  1  0  0  0  0
 33 82  1  0  0  0  0
 33 83  1  0  0  0  0
 34 84  1  0  0  0  0
 34 85  1  0  0  0  0
 34 86  1  0  0  0  0
M  END
> <PUBCHEM_COMPOUND_CID>
163193028

> <PUBCHEM_CONFORMER_RMSD>
0.8

> <PUBCHEM_CONFORMER_DIVERSEORDER>
1
5
4
3
2

> <PUBCHEM_MMFF94_PARTIAL_CHARGES>
14
1 -0.56
10 -0.28
11 0.14
14 0.42
17 0.28
2 -0.68
20 -0.29
21 0.28
3 -0.68
34 0.28
51 0.15
7 0.14
79 0.4
80 0.4

> <PUBCHEM_EFFECTIVE_ROTOR_COUNT>
3.6

> <PUBCHEM_PHARMACOPHORE_FEATURES>
11
1 1 acceptor
1 2 acceptor
1 2 donor
1 3 acceptor
1 3 donor
3 13 29 30 hydrophobe
6 11 15 23 26 27 28 rings
6 4 5 6 8 9 12 rings
6 4 5 7 10 14 20 rings
6 6 8 13 17 21 24 rings
6 7 10 11 15 16 18 rings

> <PUBCHEM_HEAVY_ATOM_COUNT>
34

> <PUBCHEM_ATOM_DEF_STEREO_COUNT>
10

> <PUBCHEM_ATOM_UDEF_STEREO_COUNT>
2

> <PUBCHEM_BOND_DEF_STEREO_COUNT>
0

> <PUBCHEM_BOND_UDEF_STEREO_COUNT>
0

> <PUBCHEM_ISOTOPIC_ATOM_COUNT>
0

> <PUBCHEM_COMPONENT_COUNT>
1

> <PUBCHEM_CACTVS_TAUTO_COUNT>
-1

> <PUBCHEM_CONFORMER_ID>
09BA20C400000001

> <PUBCHEM_MMFF94_ENERGY>
167.4649

> <PUBCHEM_FEATURE_SELFOVERLAP>
55.908

> <PUBCHEM_SHAPE_FINGERPRINT>
10076449 9 18262246521734641150
10674148 151 18202571688173946388
10688039 33 17676764293046146476
10906281 52 18261970616665965918
1100329 8 18264208187099739447
11135926 11 17897167034226960348
11513181 2 17775006756214788678
11578080 2 12893981071587221835
12107183 9 17838902525263234819
12166972 35 18342458174685550553
12236239 1 18131349708959429255
12422481 6 18270116807852553329
12467345 10 18201720648091988313
12516196 113 18260827115877395924
12553582 1 18259987067355655460
12633257 1 18260547839823778943
12788726 201 17632026268823908017
13140716 1 18408603673663556712
13224815 77 18408602565219272022
13692114 37 17615113400793972413
13782708 43 16443070530064587475
14020679 6 17821737168736655579
14341114 176 18411702079802438930
14341114 328 18202563968883241713
14394314 77 18342181076771904673
14784336 7 17911790590315176573
14840074 17 18334013895356207534
14849402 71 18339647861651926296
14856354 85 17560515209711882647
14955137 171 18187093857639968873
15001296 14 18337670922522461769
15081414 286 18335139791121109180
15131766 46 16880784008965012461
15183329 4 18412541020275728571
15238133 3 18261122854445823685
15788980 27 16515398581981767511
15840311 113 17844261627422355137
15927050 60 17545324533061398628
1601671 61 18411138056312967372
17349148 13 18335412487021006247
17818456 19 18272655679143948833
17980427 23 18273495684974603301
1813 80 17095240315629830260
19319366 153 17530679923217186898
19377110 9 18343302578705153467
20511986 3 18272638040024110803
20567600 75 16515678927419138899
20739085 24 18334861627580176908
21033648 144 18116423920016087893
21033648 29 16733251426711112957
21267235 1 18408045104139466614
21859007 373 17825384082041391701
23522609 53 18265638570160923716
23559900 14 18262512727569753900
23569914 2 16196164069523729881
23569943 247 18117271450261388163
24771293 8 18269546295374925144
34797466 226 16558754571637951252
3493558 16 17630337341342807793
350125 39 18411136931036920884
3633792 109 18337376185857463461
3680242 22 18334014977640356880
392239 28 18335696109481339170
404807 14 16980707277140753727
4073 2 18188492505371529706
4144715 1 18410303492834151067
4340502 62 16200431364592860262
460360 51 17969513769076830039
474 4 18263367039715210821
5104073 3 18336827580087697043
513202 73 17677887933588849896
513532 50 17989215858681041500
57724786 102 18041287676483624100
6086070 43 17631718448633938537
6201320 77 16155982387412021297
653340 110 18194964037165037840
9849439 229 16268019294299783529
9981440 41 17182496733645193425

> <PUBCHEM_SHAPE_MULTIPOLES>
682.1
14.09
3
1.72
2.45
1.33
0.03
-0.26
-5.04
-0.67
0.44
0.62
0.12
-1.97

> <PUBCHEM_SHAPE_SELFOVERLAP>
1435.03

> <PUBCHEM_SHAPE_VOLUME>
373.5

> <PUBCHEM_COORDINATE_TYPE>
2
5
10

$$$$
