12114129
  -OEChem-04052509193D

 83 88  0     1  0  0  0  0  0999 V2000
    1.8043   -0.5325    1.9758 O   0  0  0  0  0  0  0  0  0  0  0  0
    3.5840   -1.6411   -1.7938 O   0  0  0  0  0  0  0  0  0  0  0  0
   -6.9533    1.3546   -0.8550 O   0  0  0  0  0  0  0  0  0  0  0  0
    0.8420   -0.6568   -0.2791 C   0  0  2  0  0  0  0  0  0  0  0  0
    1.6380    0.2435    0.7450 C   0  0  2  0  0  0  0  0  0  0  0  0
   -0.6849   -0.9168    0.2744 C   0  0  1  0  0  0  0  0  0  0  0  0
    3.1145    0.5241    0.4177 C   0  0  1  0  0  0  0  0  0  0  0  0
    3.7000   -0.8721    0.5725 C   0  0  2  0  0  0  0  0  0  0  0  0
   -1.3725    0.4968    0.4272 C   0  0  1  0  0  0  0  0  0  0  0  0
   -2.9529    0.4978    0.6297 C   0  0  2  0  0  0  0  0  0  0  0  0
    1.6039   -2.0061   -0.4848 C   0  0  0  0  0  0  0  0  0  0  0  0
    0.8930    1.5458    1.0840 C   0  0  0  0  0  0  0  0  0  0  0  0
    3.1431   -1.8958   -0.4670 C   0  0  1  0  0  0  0  0  0  0  0  0
   -0.5900    1.3810    1.4303 C   0  0  0  0  0  0  0  0  0  0  0  0
   -3.5697   -0.3718   -0.5315 C   0  0  1  0  0  0  0  0  0  0  0  0
   -1.4907   -1.8229   -0.7075 C   0  0  0  0  0  0  0  0  0  0  0  0
    3.0907   -1.2011    1.9440 C   0  0  0  0  0  0  0  0  0  0  0  0
    3.6096    1.2868   -0.8034 C   0  0  0  0  0  0  0  0  0  0  0  0
    5.2356   -0.8012    0.5820 C   0  0  0  0  0  0  0  0  0  0  0  0
   -3.0101   -1.8075   -0.5105 C   0  0  0  0  0  0  0  0  0  0  0  0
    0.7928    0.0603   -1.6708 C   0  0  0  0  0  0  0  0  0  0  0  0
   -0.7054   -1.6863    1.6354 C   0  0  0  0  0  0  0  0  0  0  0  0
    5.1620    1.4070   -0.8005 C   0  0  0  0  0  0  0  0  0  0  0  0
   -5.1314   -0.2824   -0.7120 C   0  0  0  0  0  0  0  0  0  0  0  0
   -3.4757    1.9589    0.4634 C   0  0  0  0  0  0  0  0  0  0  0  0
    5.8294    0.0244   -0.5728 C   0  0  0  0  0  0  0  0  0  0  0  0
   -3.3560    0.0218    2.0462 C   0  0  0  0  0  0  0  0  0  0  0  0
   -5.5330    1.2173   -0.8154 C   0  0  2  0  0  0  0  0  0  0  0  0
   -4.9909    2.0762    0.3207 C   0  0  0  0  0  0  0  0  0  0  0  0
    5.6147    1.9618   -2.1660 C   0  0  0  0  0  0  0  0  0  0  0  0
    5.6353    2.3993    0.2825 C   0  0  0  0  0  0  0  0  0  0  0  0
   -5.5458   -0.9560   -2.0509 C   0  0  0  0  0  0  0  0  0  0  0  0
   -5.9306   -1.0069    0.3906 C   0  0  0  0  0  0  0  0  0  0  0  0
    3.4778    1.1230    1.2696 H   0  0  0  0  0  0  0  0  0  0  0  0
   -1.2465    0.9981   -0.5423 H   0  0  0  0  0  0  0  0  0  0  0  0
    1.2676   -2.4800   -1.4163 H   0  0  0  0  0  0  0  0  0  0  0  0
    1.3488   -2.7141    0.3048 H   0  0  0  0  0  0  0  0  0  0  0  0
    0.9725    2.2544    0.2520 H   0  0  0  0  0  0  0  0  0  0  0  0
    1.3753    2.0315    1.9428 H   0  0  0  0  0  0  0  0  0  0  0  0
    3.5443   -2.8857   -0.2123 H   0  0  0  0  0  0  0  0  0  0  0  0
   -0.6648    0.9954    2.4503 H   0  0  0  0  0  0  0  0  0  0  0  0
   -1.0215    2.3868    1.4653 H   0  0  0  0  0  0  0  0  0  0  0  0
   -3.1727    0.0715   -1.4607 H   0  0  0  0  0  0  0  0  0  0  0  0
   -1.1411   -2.8607   -0.6274 H   0  0  0  0  0  0  0  0  0  0  0  0
   -1.3194   -1.5495   -1.7494 H   0  0  0  0  0  0  0  0  0  0  0  0
    2.9484   -2.2715    2.1217 H   0  0  0  0  0  0  0  0  0  0  0  0
    3.6799   -0.7967    2.7745 H   0  0  0  0  0  0  0  0  0  0  0  0
    3.3130    0.8018   -1.7317 H   0  0  0  0  0  0  0  0  0  0  0  0
    3.1598    2.2869   -0.8244 H   0  0  0  0  0  0  0  0  0  0  0  0
    5.6620   -1.8115    0.5658 H   0  0  0  0  0  0  0  0  0  0  0  0
    5.5761   -0.3511    1.5234 H   0  0  0  0  0  0  0  0  0  0  0  0
   -3.4335   -2.4007   -1.3267 H   0  0  0  0  0  0  0  0  0  0  0  0
   -3.2859   -2.3357    0.4053 H   0  0  0  0  0  0  0  0  0  0  0  0
    1.6457   -0.1978   -2.3001 H   0  0  0  0  0  0  0  0  0  0  0  0
   -0.0728   -0.2066   -2.2758 H   0  0  0  0  0  0  0  0  0  0  0  0
    0.7704    1.1495   -1.5861 H   0  0  0  0  0  0  0  0  0  0  0  0
   -0.0720   -2.5749    1.6304 H   0  0  0  0  0  0  0  0  0  0  0  0
   -0.4054   -1.0805    2.4905 H   0  0  0  0  0  0  0  0  0  0  0  0
   -1.6960   -2.0710    1.8790 H   0  0  0  0  0  0  0  0  0  0  0  0
   -3.0170    2.4140   -0.4244 H   0  0  0  0  0  0  0  0  0  0  0  0
   -3.1717    2.5741    1.3184 H   0  0  0  0  0  0  0  0  0  0  0  0
    6.9050    0.1538   -0.3944 H   0  0  0  0  0  0  0  0  0  0  0  0
    5.7613   -0.5671   -1.4933 H   0  0  0  0  0  0  0  0  0  0  0  0
   -3.4825   -1.0584    2.1181 H   0  0  0  0  0  0  0  0  0  0  0  0
   -2.6305    0.3203    2.8062 H   0  0  0  0  0  0  0  0  0  0  0  0
   -4.3002    0.4562    2.3821 H   0  0  0  0  0  0  0  0  0  0  0  0
   -5.1462    1.6337   -1.7556 H   0  0  0  0  0  0  0  0  0  0  0  0
   -5.5015    1.8343    1.2590 H   0  0  0  0  0  0  0  0  0  0  0  0
   -5.2530    3.1253    0.1303 H   0  0  0  0  0  0  0  0  0  0  0  0
    3.2863   -2.3771   -2.3550 H   0  0  0  0  0  0  0  0  0  0  0  0
    5.3096    1.3002   -2.9846 H   0  0  0  0  0  0  0  0  0  0  0  0
    5.1777    2.9487   -2.3558 H   0  0  0  0  0  0  0  0  0  0  0  0
    6.7049    2.0632   -2.2111 H   0  0  0  0  0  0  0  0  0  0  0  0
    6.7164    2.5671    0.2135 H   0  0  0  0  0  0  0  0  0  0  0  0
    5.1433    3.3716    0.1665 H   0  0  0  0  0  0  0  0  0  0  0  0
    5.4330    2.0430    1.2965 H   0  0  0  0  0  0  0  0  0  0  0  0
   -4.9803   -0.5435   -2.8938 H   0  0  0  0  0  0  0  0  0  0  0  0
   -5.3823   -2.0380   -2.0324 H   0  0  0  0  0  0  0  0  0  0  0  0
   -6.6103   -0.8176   -2.2683 H   0  0  0  0  0  0  0  0  0  0  0  0
   -5.5823   -2.0347    0.5321 H   0  0  0  0  0  0  0  0  0  0  0  0
   -5.8841   -0.4988    1.3537 H   0  0  0  0  0  0  0  0  0  0  0  0
   -6.9943   -1.0696    0.1304 H   0  0  0  0  0  0  0  0  0  0  0  0
   -7.2531    1.1148   -1.7474 H   0  0  0  0  0  0  0  0  0  0  0  0
  1  5  1  0  0  0  0
  1 17  1  0  0  0  0
  2 13  1  0  0  0  0
  2 70  1  0  0  0  0
  3 28  1  0  0  0  0
  3 83  1  0  0  0  0
  4  5  1  0  0  0  0
  4  6  1  0  0  0  0
  4 11  1  0  0  0  0
  4 21  1  0  0  0  0
  5  7  1  0  0  0  0
  5 12  1  0  0  0  0
  6  9  1  0  0  0  0
  6 16  1  0  0  0  0
  6 22  1  0  0  0  0
  7  8  1  0  0  0  0
  7 18  1  0  0  0  0
  7 34  1  0  0  0  0
  8 13  1  0  0  0  0
  8 17  1  0  0  0  0
  8 19  1  0  0  0  0
  9 10  1  0  0  0  0
  9 14  1  0  0  0  0
  9 35  1  0  0  0  0
 10 15  1  0  0  0  0
 10 25  1  0  0  0  0
 10 27  1  0  0  0  0
 11 13  1  0  0  0  0
 11 36  1  0  0  0  0
 11 37  1  0  0  0  0
 12 14  1  0  0  0  0
 12 38  1  0  0  0  0
 12 39  1  0  0  0  0
 13 40  1  0  0  0  0
 14 41  1  0  0  0  0
 14 42  1  0  0  0  0
 15 20  1  0  0  0  0
 15 24  1  0  0  0  0
 15 43  1  0  0  0  0
 16 20  1  0  0  0  0
 16 44  1  0  0  0  0
 16 45  1  0  0  0  0
 17 46  1  0  0  0  0
 17 47  1  0  0  0  0
 18 23  1  0  0  0  0
 18 48  1  0  0  0  0
 18 49  1  0  0  0  0
 19 26  1  0  0  0  0
 19 50  1  0  0  0  0
 19 51  1  0  0  0  0
 20 52  1  0  0  0  0
 20 53  1  0  0  0  0
 21 54  1  0  0  0  0
 21 55  1  0  0  0  0
 21 56  1  0  0  0  0
 22 57  1  0  0  0  0
 22 58  1  0  0  0  0
 22 59  1  0  0  0  0
 23 26  1  0  0  0  0
 23 30  1  0  0  0  0
 23 31  1  0  0  0  0
 24 28  1  0  0  0  0
 24 32  1  0  0  0  0
 24 33  1  0  0  0  0
 25 29  1  0  0  0  0
 25 60  1  0  0  0  0
 25 61  1  0  0  0  0
 26 62  1  0  0  0  0
 26 63  1  0  0  0  0
 27 64  1  0  0  0  0
 27 65  1  0  0  0  0
 27 66  1  0  0  0  0
 28 29  1  0  0  0  0
 28 67  1  0  0  0  0
 29 68  1  0  0  0  0
 29 69  1  0  0  0  0
 30 71  1  0  0  0  0
 30 72  1  0  0  0  0
 30 73  1  0  0  0  0
 31 74  1  0  0  0  0
 31 75  1  0  0  0  0
 31 76  1  0  0  0  0
 32 77  1  0  0  0  0
 32 78  1  0  0  0  0
 32 79  1  0  0  0  0
 33 80  1  0  0  0  0
 33 81  1  0  0  0  0
 33 82  1  0  0  0  0
M  END
> <PUBCHEM_COMPOUND_CID>
12114129

> <PUBCHEM_CONFORMER_RMSD>
0.8

> <PUBCHEM_CONFORMER_DIVERSEORDER>
1

> <PUBCHEM_MMFF94_PARTIAL_CHARGES>
9
1 -0.56
13 0.28
17 0.28
2 -0.68
28 0.28
3 -0.68
5 0.28
70 0.4
83 0.4

> <PUBCHEM_EFFECTIVE_ROTOR_COUNT>
3.2

> <PUBCHEM_PHARMACOPHORE_FEATURES>
12
1 1 acceptor
1 2 acceptor
1 2 donor
1 3 acceptor
1 3 donor
3 23 30 31 hydrophobe
3 24 32 33 hydrophobe
6 10 15 24 25 28 29 rings
6 4 5 6 9 12 14 rings
6 6 9 10 15 16 20 rings
6 7 8 18 19 23 26 rings
8 1 4 5 7 8 11 13 17 rings

> <PUBCHEM_HEAVY_ATOM_COUNT>
33

> <PUBCHEM_ATOM_DEF_STEREO_COUNT>
10

> <PUBCHEM_ATOM_UDEF_STEREO_COUNT>
0

> <PUBCHEM_BOND_DEF_STEREO_COUNT>
0

> <PUBCHEM_BOND_UDEF_STEREO_COUNT>
0

> <PUBCHEM_ISOTOPIC_ATOM_COUNT>
0

> <PUBCHEM_COMPONENT_COUNT>
1

> <PUBCHEM_CACTVS_TAUTO_COUNT>
1

> <PUBCHEM_CONFORMER_ID>
00B8D8D100000001

> <PUBCHEM_MMFF94_ENERGY>
185.9688

> <PUBCHEM_FEATURE_SELFOVERLAP>
60.967

> <PUBCHEM_SHAPE_FINGERPRINT>
10 15 13840269195010848340
10366900 7 16917351432840987779
10554248 39 18265597823953393079
10906281 52 17988376909407183747
11089746 13 18113617863563383792
11578080 2 17023479649929437448
11646440 116 14779550062886902269
117089 54 8788681769337500696
11961588 58 18341891948083460808
11963148 33 17917700323296463335
12011746 2 17703788119623666662
12236239 1 18259981574245366875
12403259 415 17489580165157873771
12422481 6 10665213848306770665
12596602 18 17967252005445517995
12788726 201 18272368629283702065
13224815 77 18408327661980296211
13533116 47 16733254643736647826
13583140 156 17385729122882170867
13690498 29 17842837999713147767
14528608 73 18342176682866547964
14790565 3 18411420596272989728
15082195 135 18273216430448764864
15183329 4 18202847647188893533
15788980 27 18342452626173145307
15840311 113 17821730515895786317
1601671 61 18202281403280223808
17349148 13 17346880052958009603
17980427 23 18260277330468593045
18608769 82 18268713982094409715
18681886 176 18130499808388944544
19319366 153 18410848867818528030
19958102 18 16343708720244092095
20511986 3 18335126614029459164
20715895 44 18408324389299749028
21033648 29 17603865654027450616
21792934 111 7925919180102440295
22393880 68 17917142922176029892
23522609 53 17630913627512971041
23559900 14 17774711078049982193
23569914 152 14543981698249760293
23569943 247 13901089715757164420
2838139 119 18408040710556792788
3004659 81 18411697648018798586
34797466 226 17417819499563514940
350125 39 18201441393950979825
4058900 60 18335145262825522291
4340502 62 17603585253087761810
465052 167 9007061275170403376
474 4 17822017562030531172
5104073 3 16732701657627441913
59755656 215 16486975089791317743
633830 44 18261396585723268891

> <PUBCHEM_SHAPE_MULTIPOLES>
661.52
15.16
2.31
1.79
5.42
0.33
0
5.67
5.39
-0.68
0.19
-0.3
-0.11
-1.13

> <PUBCHEM_SHAPE_SELFOVERLAP>
1419.654

> <PUBCHEM_SHAPE_VOLUME>
363.2

> <PUBCHEM_COORDINATE_TYPE>
2
5
10

$$$$
