10528042
  -OEChem-04052509243D

 71 73  0     1  0  0  0  0  0999 V2000
    1.2822    2.3998    1.6254 O   0  0  0  0  0  0  0  0  0  0  0  0
   -0.3105   -1.7306   -0.0949 O   0  0  0  0  0  0  0  0  0  0  0  0
   -2.9430   -1.1362    0.2188 O   0  0  0  0  0  0  0  0  0  0  0  0
    3.4637   -0.8653    0.9542 O   0  0  0  0  0  0  0  0  0  0  0  0
   -0.3351   -3.4274   -1.6625 O   0  0  0  0  0  0  0  0  0  0  0  0
   -4.1133   -1.7553   -1.6743 O   0  0  0  0  0  0  0  0  0  0  0  0
    4.6606   -2.8409    0.9989 O   0  0  0  0  0  0  0  0  0  0  0  0
    0.8260    1.9431   -0.7320 C   0  0  1  0  0  0  0  0  0  0  0  0
    1.6412    0.5947   -0.6974 C   0  0  2  0  0  0  0  0  0  0  0  0
    3.2042    0.7011   -0.8309 C   0  0  1  0  0  0  0  0  0  0  0  0
   -0.6723    1.6477   -0.4224 C   0  0  0  0  0  0  0  0  0  0  0  0
    1.4673    2.9147    0.3031 C   0  0  2  0  0  0  0  0  0  0  0  0
    0.9817   -0.4292   -1.6363 C   0  0  0  0  0  0  0  0  0  0  0  0
    3.7391    1.7947    0.1279 C   0  0  0  0  0  0  0  0  0  0  0  0
   -1.2209    0.4180   -0.5953 C   0  0  0  0  0  0  0  0  0  0  0  0
    2.9691    3.1123    0.0699 C   0  0  0  0  0  0  0  0  0  0  0  0
   -0.4293   -0.7580   -1.1382 C   0  0  2  0  0  0  0  0  0  0  0  0
    0.8131    2.6276   -2.1240 C   0  0  0  0  0  0  0  0  0  0  0  0
   -1.5167    2.8314    0.0288 C   0  0  0  0  0  0  0  0  0  0  0  0
   -2.7071    0.1573   -0.3415 C   0  0  2  0  0  0  0  0  0  0  0  0
   -3.4095    1.2178    0.5489 C   0  0  1  0  0  0  0  0  0  0  0  0
    3.8498   -0.6383   -0.3797 C   0  0  0  0  0  0  0  0  0  0  0  0
    3.7156    0.9594   -2.2612 C   0  0  0  0  0  0  0  0  0  0  0  0
   -3.0298    2.6010   -0.0012 C   0  0  0  0  0  0  0  0  0  0  0  0
   -4.9365    1.0373    0.4846 C   0  0  0  0  0  0  0  0  0  0  0  0
   -3.0027    1.1059    2.0030 C   0  0  0  0  0  0  0  0  0  0  0  0
   -0.2755   -3.0298   -0.5068 C   0  0  0  0  0  0  0  0  0  0  0  0
   -3.4580    1.9080    2.9713 C   0  0  0  0  0  0  0  0  0  0  0  0
   -3.6628   -1.9933   -0.5619 C   0  0  0  0  0  0  0  0  0  0  0  0
    3.9390   -2.0137    1.5396 C   0  0  0  0  0  0  0  0  0  0  0  0
   -0.1495   -3.9297    0.6849 C   0  0  0  0  0  0  0  0  0  0  0  0
   -3.8303   -3.3019    0.1491 C   0  0  0  0  0  0  0  0  0  0  0  0
    3.4499   -2.1222    2.9520 C   0  0  0  0  0  0  0  0  0  0  0  0
    1.4754    0.2039    0.3187 H   0  0  0  0  0  0  0  0  0  0  0  0
    0.9793    3.8959    0.2671 H   0  0  0  0  0  0  0  0  0  0  0  0
    0.9318   -0.0410   -2.6586 H   0  0  0  0  0  0  0  0  0  0  0  0
    1.5690   -1.3495   -1.6889 H   0  0  0  0  0  0  0  0  0  0  0  0
    4.7979    1.9935   -0.0840 H   0  0  0  0  0  0  0  0  0  0  0  0
    3.7101    1.4542    1.1702 H   0  0  0  0  0  0  0  0  0  0  0  0
    3.3718    3.7722    0.8488 H   0  0  0  0  0  0  0  0  0  0  0  0
    3.1510    3.6162   -0.8845 H   0  0  0  0  0  0  0  0  0  0  0  0
   -0.9988   -1.1697   -1.9825 H   0  0  0  0  0  0  0  0  0  0  0  0
    0.2746    3.5820   -2.0937 H   0  0  0  0  0  0  0  0  0  0  0  0
    0.3163    2.0173   -2.8853 H   0  0  0  0  0  0  0  0  0  0  0  0
    1.8037    2.8731   -2.4968 H   0  0  0  0  0  0  0  0  0  0  0  0
   -1.2231    3.1039    1.0493 H   0  0  0  0  0  0  0  0  0  0  0  0
   -1.3120    3.7070   -0.5962 H   0  0  0  0  0  0  0  0  0  0  0  0
   -3.1581    0.2338   -1.3414 H   0  0  0  0  0  0  0  0  0  0  0  0
    4.9444   -0.5621   -0.4245 H   0  0  0  0  0  0  0  0  0  0  0  0
    3.5482   -1.4764   -1.0161 H   0  0  0  0  0  0  0  0  0  0  0  0
    4.7992    0.7971   -2.3211 H   0  0  0  0  0  0  0  0  0  0  0  0
    3.5591    1.9842   -2.5951 H   0  0  0  0  0  0  0  0  0  0  0  0
    3.2544    0.2837   -2.9875 H   0  0  0  0  0  0  0  0  0  0  0  0
   -3.3764    2.6863   -1.0410 H   0  0  0  0  0  0  0  0  0  0  0  0
   -3.5295    3.4124    0.5430 H   0  0  0  0  0  0  0  0  0  0  0  0
    1.6599    3.0452    2.2470 H   0  0  0  0  0  0  0  0  0  0  0  0
   -5.4735    1.8552    0.9789 H   0  0  0  0  0  0  0  0  0  0  0  0
   -5.2578    0.0996    0.9532 H   0  0  0  0  0  0  0  0  0  0  0  0
   -5.2829    1.0190   -0.5556 H   0  0  0  0  0  0  0  0  0  0  0  0
   -2.2912    0.3334    2.2853 H   0  0  0  0  0  0  0  0  0  0  0  0
   -3.1196    1.7726    3.9932 H   0  0  0  0  0  0  0  0  0  0  0  0
   -4.1630    2.7086    2.7807 H   0  0  0  0  0  0  0  0  0  0  0  0
    0.8430   -3.8160    1.1279 H   0  0  0  0  0  0  0  0  0  0  0  0
   -0.2826   -4.9686    0.3703 H   0  0  0  0  0  0  0  0  0  0  0  0
   -0.9251   -3.6924    1.4175 H   0  0  0  0  0  0  0  0  0  0  0  0
   -3.6294   -3.1937    1.2189 H   0  0  0  0  0  0  0  0  0  0  0  0
   -4.8646   -3.6383    0.0380 H   0  0  0  0  0  0  0  0  0  0  0  0
   -3.1472   -4.0398   -0.2764 H   0  0  0  0  0  0  0  0  0  0  0  0
    2.3574   -2.1523    2.9626 H   0  0  0  0  0  0  0  0  0  0  0  0
    3.8287   -3.0461    3.3981 H   0  0  0  0  0  0  0  0  0  0  0  0
    3.8174   -1.2750    3.5362 H   0  0  0  0  0  0  0  0  0  0  0  0
  1 12  1  0  0  0  0
  1 56  1  0  0  0  0
  2 17  1  0  0  0  0
  2 27  1  0  0  0  0
  3 20  1  0  0  0  0
  3 29  1  0  0  0  0
  4 22  1  0  0  0  0
  4 30  1  0  0  0  0
  5 27  2  0  0  0  0
  6 29  2  0  0  0  0
  7 30  2  0  0  0  0
  8  9  1  0  0  0  0
  8 11  1  0  0  0  0
  8 12  1  0  0  0  0
  8 18  1  0  0  0  0
  9 10  1  0  0  0  0
  9 13  1  0  0  0  0
  9 34  1  0  0  0  0
 10 14  1  0  0  0  0
 10 22  1  0  0  0  0
 10 23  1  0  0  0  0
 11 15  2  0  0  0  0
 11 19  1  0  0  0  0
 12 16  1  0  0  0  0
 12 35  1  0  0  0  0
 13 17  1  0  0  0  0
 13 36  1  0  0  0  0
 13 37  1  0  0  0  0
 14 16  1  0  0  0  0
 14 38  1  0  0  0  0
 14 39  1  0  0  0  0
 15 17  1  0  0  0  0
 15 20  1  0  0  0  0
 16 40  1  0  0  0  0
 16 41  1  0  0  0  0
 17 42  1  0  0  0  0
 18 43  1  0  0  0  0
 18 44  1  0  0  0  0
 18 45  1  0  0  0  0
 19 24  1  0  0  0  0
 19 46  1  0  0  0  0
 19 47  1  0  0  0  0
 20 21  1  0  0  0  0
 20 48  1  0  0  0  0
 21 24  1  0  0  0  0
 21 25  1  0  0  0  0
 21 26  1  0  0  0  0
 22 49  1  0  0  0  0
 22 50  1  0  0  0  0
 23 51  1  0  0  0  0
 23 52  1  0  0  0  0
 23 53  1  0  0  0  0
 24 54  1  0  0  0  0
 24 55  1  0  0  0  0
 25 57  1  0  0  0  0
 25 58  1  0  0  0  0
 25 59  1  0  0  0  0
 26 28  2  0  0  0  0
 26 60  1  0  0  0  0
 27 31  1  0  0  0  0
 28 61  1  0  0  0  0
 28 62  1  0  0  0  0
 29 32  1  0  0  0  0
 30 33  1  0  0  0  0
 31 63  1  0  0  0  0
 31 64  1  0  0  0  0
 31 65  1  0  0  0  0
 32 66  1  0  0  0  0
 32 67  1  0  0  0  0
 32 68  1  0  0  0  0
 33 69  1  0  0  0  0
 33 70  1  0  0  0  0
 33 71  1  0  0  0  0
M  END
> <PUBCHEM_COMPOUND_CID>
10528042

> <PUBCHEM_CONFORMER_RMSD>
1

> <PUBCHEM_CONFORMER_DIVERSEORDER>
1
4
7
6
2
3
5

> <PUBCHEM_MMFF94_PARTIAL_CHARGES>
28
1 -0.68
11 -0.28
12 0.28
15 -0.28
17 0.42
19 0.14
2 -0.43
20 0.42
21 0.14
22 0.28
26 -0.29
27 0.66
28 -0.3
29 0.66
3 -0.43
30 0.66
31 0.06
32 0.06
33 0.06
4 -0.43
5 -0.57
56 0.4
6 -0.57
60 0.15
61 0.15
62 0.15
7 -0.57
8 0.14

> <PUBCHEM_EFFECTIVE_ROTOR_COUNT>
10

> <PUBCHEM_PHARMACOPHORE_FEATURES>
9
1 1 acceptor
1 1 donor
1 28 hydrophobe
1 5 acceptor
1 6 acceptor
1 7 acceptor
6 11 15 19 20 21 24 rings
6 8 9 10 12 14 16 rings
6 8 9 11 13 15 17 rings

> <PUBCHEM_HEAVY_ATOM_COUNT>
33

> <PUBCHEM_ATOM_DEF_STEREO_COUNT>
7

> <PUBCHEM_ATOM_UDEF_STEREO_COUNT>
0

> <PUBCHEM_BOND_DEF_STEREO_COUNT>
0

> <PUBCHEM_BOND_UDEF_STEREO_COUNT>
0

> <PUBCHEM_ISOTOPIC_ATOM_COUNT>
0

> <PUBCHEM_COMPONENT_COUNT>
1

> <PUBCHEM_CACTVS_TAUTO_COUNT>
1

> <PUBCHEM_CONFORMER_ID>
00A0A52A00000001

> <PUBCHEM_MMFF94_ENERGY>
92.2419

> <PUBCHEM_FEATURE_SELFOVERLAP>
45.702

> <PUBCHEM_SHAPE_FINGERPRINT>
1100329 8 18337951173560106211
11513181 2 18059859458748254574
11578080 2 17751333197675631988
12156800 1 13502094560183495514
12422481 6 17905044755338690200
12633257 1 18271251512532420025
12788726 201 17986393510547322463
13140716 1 18340778108597778997
13583140 156 18187662326547400553
14117953 113 18122899829140458567
14178342 30 18059581222186699459
15403338 16 16808412757232572403
17349148 13 18201719540117468229
19319366 153 17967829258072590414
20028762 73 18202558458709642727
20600515 1 17987799593046932288
20691752 17 18041281079208187436
21796203 349 18046091288751539610
23559900 14 18060149712785473044
3380486 145 18048029667062713469
350125 39 18198924663137503981
460360 51 18261101980762255637
5104073 3 18201444721849417216
56633871 153 18122335783665005962
7097593 13 18335133215821519356

> <PUBCHEM_SHAPE_MULTIPOLES>
638.04
8.54
4.86
2.17
0.49
2.73
1.12
1.56
2.51
-0.13
0.49
-0.59
0.13
-3.15

> <PUBCHEM_SHAPE_SELFOVERLAP>
1331.462

> <PUBCHEM_SHAPE_VOLUME>
357.2

> <PUBCHEM_COORDINATE_TYPE>
2
5
10

$$$$
