25016146
  -OEChem-04052509273D

 54 55  0     1  0  0  0  0  0999 V2000
   -4.6507    1.3616    2.6031 Br  0  0  0  0  0  0  0  0  0  0  0  0
   -4.1271    0.7307   -3.0365 Br  0  0  0  0  0  0  0  0  0  0  0  0
   -2.4061   -2.0841    0.5618 O   0  0  0  0  0  0  0  0  0  0  0  0
   -1.4580    1.3320    1.4006 O   0  0  0  0  0  0  0  0  0  0  0  0
   -5.5395    1.3059   -0.3846 O   0  0  0  0  0  0  0  0  0  0  0  0
    0.9552   -3.7173   -1.3972 O   0  0  0  0  0  0  0  0  0  0  0  0
    2.7424    3.1807    0.2428 O   0  0  0  0  0  0  0  0  0  0  0  0
    4.4232    2.9395   -1.3037 O   0  0  0  0  0  0  0  0  0  0  0  0
   -1.4386   -3.0597    0.2088 N   0  0  0  0  0  0  0  0  0  0  0  0
    1.9171   -2.9721    0.6078 N   0  0  0  0  0  0  0  0  0  0  0  0
    4.3875    1.6998    0.6583 N   0  0  0  0  0  0  0  0  0  0  0  0
   -1.8787   -0.7708    0.2394 C   0  0  2  0  0  0  0  0  0  0  0  0
   -0.3635   -0.9615    0.2519 C   0  0  0  0  0  0  0  0  0  0  0  0
   -2.3556    0.2210    1.3335 C   0  0  2  0  0  0  0  0  0  0  0  0
   -2.4085   -0.4101   -1.1347 C   0  0  0  0  0  0  0  0  0  0  0  0
   -0.3357   -2.4203    0.0312 C   0  0  0  0  0  0  0  0  0  0  0  0
   -3.7439    0.7633    1.0784 C   0  0  0  0  0  0  0  0  0  0  0  0
   -3.5157    0.3329   -1.3105 C   0  0  0  0  0  0  0  0  0  0  0  0
   -4.2715    0.8054   -0.1585 C   0  0  0  0  0  0  0  0  0  0  0  0
    0.9183   -3.1101   -0.3334 C   0  0  0  0  0  0  0  0  0  0  0  0
    4.2090   -2.6309   -0.2447 C   0  0  0  0  0  0  0  0  0  0  0  0
    3.2288   -3.5604    0.4637 C   0  0  0  0  0  0  0  0  0  0  0  0
    4.3942   -1.2996    0.4906 C   0  0  0  0  0  0  0  0  0  0  0  0
    5.3371   -0.3693   -0.2790 C   0  0  0  0  0  0  0  0  0  0  0  0
    5.5920    0.9439    0.4537 C   0  0  0  0  0  0  0  0  0  0  0  0
   -6.5050    0.2766   -0.3025 C   0  0  0  0  0  0  0  0  0  0  0  0
    3.9005    2.6361   -0.2363 C   0  0  0  0  0  0  0  0  0  0  0  0
    2.1273    4.1708   -0.5889 C   0  0  0  0  0  0  0  0  0  0  0  0
    0.8654    4.6662    0.0850 C   0  0  0  0  0  0  0  0  0  0  0  0
    0.1683   -0.4095   -0.5271 H   0  0  0  0  0  0  0  0  0  0  0  0
    0.0850   -0.7549    1.2290 H   0  0  0  0  0  0  0  0  0  0  0  0
   -2.3226   -0.2948    2.3020 H   0  0  0  0  0  0  0  0  0  0  0  0
   -1.8738   -0.8012   -1.9976 H   0  0  0  0  0  0  0  0  0  0  0  0
    5.1771   -3.1372   -0.3381 H   0  0  0  0  0  0  0  0  0  0  0  0
    3.8494   -2.4337   -1.2624 H   0  0  0  0  0  0  0  0  0  0  0  0
   -1.7518    1.9052    2.1294 H   0  0  0  0  0  0  0  0  0  0  0  0
    3.5889   -3.8012    1.4694 H   0  0  0  0  0  0  0  0  0  0  0  0
    3.1379   -4.4969   -0.0974 H   0  0  0  0  0  0  0  0  0  0  0  0
    3.4238   -0.8069    0.6178 H   0  0  0  0  0  0  0  0  0  0  0  0
    4.7966   -1.4888    1.4931 H   0  0  0  0  0  0  0  0  0  0  0  0
    1.7327   -2.4391    1.4526 H   0  0  0  0  0  0  0  0  0  0  0  0
    6.2973   -0.8741   -0.4396 H   0  0  0  0  0  0  0  0  0  0  0  0
    4.9129   -0.1618   -1.2693 H   0  0  0  0  0  0  0  0  0  0  0  0
    6.0307    0.7539    1.4389 H   0  0  0  0  0  0  0  0  0  0  0  0
    6.3008    1.5517   -0.1192 H   0  0  0  0  0  0  0  0  0  0  0  0
   -7.4883    0.7206   -0.4862 H   0  0  0  0  0  0  0  0  0  0  0  0
   -6.5302   -0.1866    0.6893 H   0  0  0  0  0  0  0  0  0  0  0  0
   -6.3421   -0.4948   -1.0631 H   0  0  0  0  0  0  0  0  0  0  0  0
    3.8574    1.5368    1.5091 H   0  0  0  0  0  0  0  0  0  0  0  0
    2.8209    5.0061   -0.7358 H   0  0  0  0  0  0  0  0  0  0  0  0
    1.8789    3.7282   -1.5600 H   0  0  0  0  0  0  0  0  0  0  0  0
    0.1688    3.8383    0.2542 H   0  0  0  0  0  0  0  0  0  0  0  0
    1.0949    5.0939    1.0665 H   0  0  0  0  0  0  0  0  0  0  0  0
    0.3689    5.4263   -0.5245 H   0  0  0  0  0  0  0  0  0  0  0  0
  1 17  1  0  0  0  0
  2 18  1  0  0  0  0
  3  9  1  0  0  0  0
  3 12  1  0  0  0  0
  4 14  1  0  0  0  0
  4 36  1  0  0  0  0
  5 19  1  0  0  0  0
  5 26  1  0  0  0  0
  6 20  2  0  0  0  0
  7 27  1  0  0  0  0
  7 28  1  0  0  0  0
  8 27  2  0  0  0  0
  9 16  2  0  0  0  0
 10 20  1  0  0  0  0
 10 22  1  0  0  0  0
 10 41  1  0  0  0  0
 11 25  1  0  0  0  0
 11 27  1  0  0  0  0
 11 49  1  0  0  0  0
 12 13  1  0  0  0  0
 12 14  1  0  0  0  0
 12 15  1  0  0  0  0
 13 16  1  0  0  0  0
 13 30  1  0  0  0  0
 13 31  1  0  0  0  0
 14 17  1  0  0  0  0
 14 32  1  0  0  0  0
 15 18  2  0  0  0  0
 15 33  1  0  0  0  0
 16 20  1  0  0  0  0
 17 19  2  0  0  0  0
 18 19  1  0  0  0  0
 21 22  1  0  0  0  0
 21 23  1  0  0  0  0
 21 34  1  0  0  0  0
 21 35  1  0  0  0  0
 22 37  1  0  0  0  0
 22 38  1  0  0  0  0
 23 24  1  0  0  0  0
 23 39  1  0  0  0  0
 23 40  1  0  0  0  0
 24 25  1  0  0  0  0
 24 42  1  0  0  0  0
 24 43  1  0  0  0  0
 25 44  1  0  0  0  0
 25 45  1  0  0  0  0
 26 46  1  0  0  0  0
 26 47  1  0  0  0  0
 26 48  1  0  0  0  0
 28 29  1  0  0  0  0
 28 50  1  0  0  0  0
 28 51  1  0  0  0  0
 29 52  1  0  0  0  0
 29 53  1  0  0  0  0
 29 54  1  0  0  0  0
M  END
> <PUBCHEM_COMPOUND_CID>
25016146

> <PUBCHEM_CONFORMER_RMSD>
1.2

> <PUBCHEM_CONFORMER_DIVERSEORDER>
1
90
18
73
65
35
26
46
28
57
3
61
98
20
86
88
17
107
93
40
96
83
70
78
25
27
33
37
67
49
24
84
85
95
23
72
16
42
68
58
112
36
2
15
76
113
82
75
31
34
6
13
102
4
56
104
29
71
19
14
50
47
21
39
48
62
74
30
32
94
45
51
64
106
41
9
53
69
8
100
43
108
79
87
103
92
89
59
111
12
38
77
52
22
7
97
54
110
55
63
44
5
99
91
109
66
60
11
80
81
101
105
10

> <PUBCHEM_MMFF94_PARTIAL_CHARGES>
29
1 -0.11
10 -0.73
11 -0.73
12 0.42
13 0.06
14 0.42
15 -0.29
16 0.39
17 -0.03
18 0.11
19 0.08
2 -0.11
20 0.63
22 0.3
25 0.3
26 0.28
27 0.78
28 0.28
3 -0.22
33 0.15
36 0.4
4 -0.68
41 0.37
49 0.37
5 -0.36
6 -0.57
7 -0.43
8 -0.57
9 -0.51

> <PUBCHEM_EFFECTIVE_ROTOR_COUNT>
12.6

> <PUBCHEM_PHARMACOPHORE_FEATURES>
12
1 1 hydrophobe
1 10 donor
1 11 donor
1 2 hydrophobe
1 4 acceptor
1 4 donor
1 5 acceptor
1 6 acceptor
1 8 acceptor
1 9 acceptor
5 3 9 12 13 16 rings
6 12 14 15 17 18 19 rings

> <PUBCHEM_HEAVY_ATOM_COUNT>
29

> <PUBCHEM_ATOM_DEF_STEREO_COUNT>
2

> <PUBCHEM_ATOM_UDEF_STEREO_COUNT>
0

> <PUBCHEM_BOND_DEF_STEREO_COUNT>
0

> <PUBCHEM_BOND_UDEF_STEREO_COUNT>
0

> <PUBCHEM_ISOTOPIC_ATOM_COUNT>
0

> <PUBCHEM_COMPONENT_COUNT>
1

> <PUBCHEM_CACTVS_TAUTO_COUNT>
4

> <PUBCHEM_CONFORMER_ID>
017DB75200000001

> <PUBCHEM_MMFF94_ENERGY>
47.9707

> <PUBCHEM_FEATURE_SELFOVERLAP>
60.906

> <PUBCHEM_SHAPE_FINGERPRINT>
11059048 146 17977119168964986252
11273773 38 18262523718919092188
12925494 130 18337388348223800019
12978246 48 18194966477306880970
13165053 68 18339353185205842399
13583140 156 17677050135778003795
14117953 113 18411135819305146740
14784336 7 17988353892841345681
15003188 8 18340474656610901896
15322535 138 17546999093565812744
16760501 71 18409735062349050555
21033648 144 18408878517021488790
21033648 29 17313946303445612263
21344244 78 17682093519070280818
21860390 5 18272092674094574582
245318 6 18262253217134949220
3729539 64 18410285917943799357
4573279 73 18126557062819058167
474 4 18342737373472311138

> <PUBCHEM_SHAPE_MULTIPOLES>
558.53
13.38
5.56
1.82
0.23
2.39
-0.47
4.49
-0.21
8.38
-0.54
-3.54
0.65
-0.88

> <PUBCHEM_SHAPE_SELFOVERLAP>
1113.718

> <PUBCHEM_SHAPE_VOLUME>
336.3

> <PUBCHEM_COORDINATE_TYPE>
2
5
10

$$$$
