162817368
  -OEChem-04052509223D

 55 57  0     1  0  0  0  0  0999 V2000
    3.2165   -1.5396   -0.7976 O   0  0  0  0  0  0  0  0  0  0  0  0
    5.8309   -0.6576   -1.4127 O   0  0  0  0  0  0  0  0  0  0  0  0
    4.6792    2.1737    0.6124 O   0  0  0  0  0  0  0  0  0  0  0  0
    0.1545   -4.5985    1.0658 O   0  0  0  0  0  0  0  0  0  0  0  0
    7.2132    1.0576    1.3198 O   0  0  0  0  0  0  0  0  0  0  0  0
   -6.2153    2.4356    1.5982 O   0  0  0  0  0  0  0  0  0  0  0  0
   -6.8660    3.3575   -0.9419 O   0  0  0  0  0  0  0  0  0  0  0  0
    7.6884    3.6800    1.1836 O   0  0  0  0  0  0  0  0  0  0  0  0
   -0.4311   -1.2800   -0.4562 C   0  0  0  0  0  0  0  0  0  0  0  0
   -1.5014   -0.2646   -0.8049 C   0  0  0  0  0  0  0  0  0  0  0  0
   -0.7402   -2.5177    0.1484 C   0  0  0  0  0  0  0  0  0  0  0  0
   -2.8878   -0.5819   -0.2963 C   0  0  0  0  0  0  0  0  0  0  0  0
    5.0435    0.0040   -0.4207 C   0  0  1  0  0  0  0  0  0  0  0  0
    5.4812    1.4793   -0.3447 C   0  0  2  0  0  0  0  0  0  0  0  0
   -2.1696   -2.8030    0.4641 C   0  0  0  0  0  0  0  0  0  0  0  0
    0.9019   -0.9653   -0.7746 C   0  0  0  0  0  0  0  0  0  0  0  0
    3.5663   -0.1560   -0.7797 C   0  0  0  0  0  0  0  0  0  0  0  0
   -3.1787   -1.7664    0.2711 C   0  0  0  0  0  0  0  0  0  0  0  0
    1.9305   -1.8576   -0.4885 C   0  0  0  0  0  0  0  0  0  0  0  0
    0.3162   -3.4005    0.4343 C   0  0  0  0  0  0  0  0  0  0  0  0
   -3.9367    0.4544   -0.4622 C   0  0  0  0  0  0  0  0  0  0  0  0
    6.9514    1.6541    0.0618 C   0  0  1  0  0  0  0  0  0  0  0  0
    1.6375   -3.0729    0.1174 C   0  0  0  0  0  0  0  0  0  0  0  0
   -4.5946    0.9672    0.6557 C   0  0  0  0  0  0  0  0  0  0  0  0
   -4.2631    0.9175   -1.7368 C   0  0  0  0  0  0  0  0  0  0  0  0
   -2.5787   -3.9970    0.9322 C   0  0  0  0  0  0  0  0  0  0  0  0
   -5.5789    1.9431    0.4991 C   0  0  0  0  0  0  0  0  0  0  0  0
    7.3068    3.1256    0.1575 C   0  0  0  0  0  0  0  0  0  0  0  0
   -5.2475    1.8933   -1.8935 C   0  0  0  0  0  0  0  0  0  0  0  0
   -5.9054    2.4061   -0.7756 C   0  0  0  0  0  0  0  0  0  0  0  0
   -5.8228    1.9094    2.8646 C   0  0  0  0  0  0  0  0  0  0  0  0
   -1.1940    0.7038   -0.3878 H   0  0  0  0  0  0  0  0  0  0  0  0
   -1.5290   -0.1702   -1.8978 H   0  0  0  0  0  0  0  0  0  0  0  0
    5.2275   -0.5001    0.5356 H   0  0  0  0  0  0  0  0  0  0  0  0
    5.3345    1.9633   -1.3190 H   0  0  0  0  0  0  0  0  0  0  0  0
    1.0934   -0.0190   -1.2747 H   0  0  0  0  0  0  0  0  0  0  0  0
    2.9696    0.3838   -0.0353 H   0  0  0  0  0  0  0  0  0  0  0  0
    3.3784    0.2561   -1.7783 H   0  0  0  0  0  0  0  0  0  0  0  0
   -4.1930   -1.9792    0.6021 H   0  0  0  0  0  0  0  0  0  0  0  0
    7.6126    1.1963   -0.6817 H   0  0  0  0  0  0  0  0  0  0  0  0
    2.4507   -3.7585    0.3454 H   0  0  0  0  0  0  0  0  0  0  0  0
   -4.2976    0.5790    1.6246 H   0  0  0  0  0  0  0  0  0  0  0  0
   -3.7670    0.5257   -2.6211 H   0  0  0  0  0  0  0  0  0  0  0  0
   -3.6318   -4.1615    1.1555 H   0  0  0  0  0  0  0  0  0  0  0  0
   -1.9765   -4.8747    1.0982 H   0  0  0  0  0  0  0  0  0  0  0  0
    5.5325   -1.5825   -1.4514 H   0  0  0  0  0  0  0  0  0  0  0  0
    3.8162    2.3507    0.2018 H   0  0  0  0  0  0  0  0  0  0  0  0
    7.2129    3.6942   -0.7841 H   0  0  0  0  0  0  0  0  0  0  0  0
   -5.4932    2.2438   -2.8924 H   0  0  0  0  0  0  0  0  0  0  0  0
    1.0124   -5.0444    1.1674 H   0  0  0  0  0  0  0  0  0  0  0  0
    8.1725    1.1030    1.4731 H   0  0  0  0  0  0  0  0  0  0  0  0
   -6.9566    3.5538   -1.8902 H   0  0  0  0  0  0  0  0  0  0  0  0
   -6.4315    2.4115    3.6240 H   0  0  0  0  0  0  0  0  0  0  0  0
   -4.7770    2.1422    3.0922 H   0  0  0  0  0  0  0  0  0  0  0  0
   -6.0396    0.8385    2.9421 H   0  0  0  0  0  0  0  0  0  0  0  0
  1 17  1  0  0  0  0
  1 19  1  0  0  0  0
  2 13  1  0  0  0  0
  2 46  1  0  0  0  0
  3 14  1  0  0  0  0
  3 47  1  0  0  0  0
  4 20  1  0  0  0  0
  4 50  1  0  0  0  0
  5 22  1  0  0  0  0
  5 51  1  0  0  0  0
  6 27  1  0  0  0  0
  6 31  1  0  0  0  0
  7 30  1  0  0  0  0
  7 52  1  0  0  0  0
  8 28  2  0  0  0  0
  9 10  1  0  0  0  0
  9 11  2  0  0  0  0
  9 16  1  0  0  0  0
 10 12  1  0  0  0  0
 10 32  1  0  0  0  0
 10 33  1  0  0  0  0
 11 15  1  0  0  0  0
 11 20  1  0  0  0  0
 12 18  2  0  0  0  0
 12 21  1  0  0  0  0
 13 14  1  0  0  0  0
 13 17  1  0  0  0  0
 13 34  1  0  0  0  0
 14 22  1  0  0  0  0
 14 35  1  0  0  0  0
 15 18  1  0  0  0  0
 15 26  2  0  0  0  0
 16 19  2  0  0  0  0
 16 36  1  0  0  0  0
 17 37  1  0  0  0  0
 17 38  1  0  0  0  0
 18 39  1  0  0  0  0
 19 23  1  0  0  0  0
 20 23  2  0  0  0  0
 21 24  2  0  0  0  0
 21 25  1  0  0  0  0
 22 28  1  0  0  0  0
 22 40  1  0  0  0  0
 23 41  1  0  0  0  0
 24 27  1  0  0  0  0
 24 42  1  0  0  0  0
 25 29  2  0  0  0  0
 25 43  1  0  0  0  0
 26 44  1  0  0  0  0
 26 45  1  0  0  0  0
 27 30  2  0  0  0  0
 28 48  1  0  0  0  0
 29 30  1  0  0  0  0
 29 49  1  0  0  0  0
 31 53  1  0  0  0  0
 31 54  1  0  0  0  0
 31 55  1  0  0  0  0
M  END
> <PUBCHEM_COMPOUND_CID>
162817368

> <PUBCHEM_CONFORMER_RMSD>
1

> <PUBCHEM_CONFORMER_DIVERSEORDER>
3
91
67
108
78
85
63
88
109
49
27
22
16
104
105
61
10
107
117
62
41
99
116
80
84
32
97
8
98
94
86
58
21
37
39
29
87
90
102
57
70
5
2
18
17
112
35
83
50
23
68
11
96
60
101
69
64
25
44
77
26
51
56
42
34
79
82
74
1
81
30
12
43
4
73
6
14
28
95
100
47
72
55
31
45
15
7
114
92
13
59
93
19
66
46
120
103
119
24
76
53
118
89
9
48
54
111
20
65
106
33
115
40
75
71
38
110
113
52
36

> <PUBCHEM_MMFF94_PARTIAL_CHARGES>
45
1 -0.36
10 0.28
11 0.03
12 -0.17
13 0.28
14 0.28
15 -0.03
16 -0.15
17 0.28
18 -0.15
19 0.08
2 -0.68
20 0.08
21 0.03
22 0.34
23 -0.15
24 -0.15
25 -0.15
26 -0.3
27 0.08
28 0.45
29 -0.15
3 -0.68
30 0.08
31 0.28
36 0.15
39 0.15
4 -0.53
41 0.15
42 0.15
43 0.15
44 0.15
45 0.15
46 0.4
47 0.4
48 0.06
49 0.15
5 -0.68
50 0.45
51 0.4
52 0.45
6 -0.36
7 -0.53
8 -0.57
9 -0.14

> <PUBCHEM_EFFECTIVE_ROTOR_COUNT>
8.2

> <PUBCHEM_PHARMACOPHORE_FEATURES>
14
1 1 acceptor
1 2 acceptor
1 2 donor
1 3 acceptor
1 3 donor
1 4 donor
1 5 acceptor
1 5 donor
1 6 acceptor
1 7 donor
1 8 acceptor
6 21 24 25 27 29 30 rings
6 9 10 11 12 15 18 rings
6 9 11 16 19 20 23 rings

> <PUBCHEM_HEAVY_ATOM_COUNT>
31

> <PUBCHEM_ATOM_DEF_STEREO_COUNT>
3

> <PUBCHEM_ATOM_UDEF_STEREO_COUNT>
0

> <PUBCHEM_BOND_DEF_STEREO_COUNT>
0

> <PUBCHEM_BOND_UDEF_STEREO_COUNT>
0

> <PUBCHEM_ISOTOPIC_ATOM_COUNT>
0

> <PUBCHEM_COMPONENT_COUNT>
1

> <PUBCHEM_CACTVS_TAUTO_COUNT>
-1

> <PUBCHEM_CONFORMER_ID>
09B4655800000003

> <PUBCHEM_MMFF94_ENERGY>
108.3064

> <PUBCHEM_FEATURE_SELFOVERLAP>
71.086

> <PUBCHEM_SHAPE_FINGERPRINT>
10 15 17458922443917745455
10074138 170 17459202914004595323
10319926 262 15937260980252194967
10533779 1 18340756109649597880
10675989 125 18268714918333645402
10835480 77 18343581872007503452
11007060 377 18408044005471584711
11135609 127 17974555907061037813
11135609 187 18261380128168090399
11135609 201 18411140242894731931
11410812 94 15123235360885233586
12061779 8 17416421861592648505
12107183 9 18187347832758774186
12422481 6 17095522859642162102
12522641 68 18272366477384378375
12895837 130 18059293270056532492
12925494 130 18339637962126348536
12975358 362 18262817193312501325
131258 43 10735584856560493354
13540713 4 18339096938039664894
13540713 5 18264186072625609335
13726171 33 18338519767760211192
14150022 121 18267593588340668907
14223995 32 18409162230155915844
14415360 78 18335685174875120253
14565420 104 18260829246039178810
14950920 106 14707217638175965253
15131766 46 18268135488828353021
15350500 55 18200589311506200092
15685185 35 18272938257959397369
15803439 3 16559031619020267998
15950262 2 17775011149966208333
16096371 109 18116988880331338738
16126227 98 18341057376056076395
17913733 40 18189911833344038331
19304671 126 17988089893854122508
19309040 13 18059860528120868239
19438510 23 18343305850953339755
20609170 109 16590567931824120657
20691028 202 18335707117483084317
20715895 44 18411417320014724644
21033648 29 18333455352487644382
21401589 2 18333737909775190011
21424621 283 18410572898973215598
22311459 1 18048030770991757978
23528521 120 17823402827446592597
23559900 14 18340491054723133246
23569914 2 16591928848184369381
23576562 1 12823295702511109715
23929065 36 18122895692823922498
24180151 40 17969481874788153155
25025965 108 8357710508122782396
255183 451 10231744613329192642
2748736 6 18413100671937268940
283562 15 18190739924472352435
2838139 119 18271527481271009844
376196 1 18411420609496242390
3918712 181 18339351972881125041
397638 26 18259698983004446696
4112364 45 18041830719105139314
4144715 1 18117846732109569314
4403749 210 18260833688153239915
474113 269 12324248304207222217
5104073 3 18186802482911711242
636775 72 18124310769385541416
6371009 1 18115585001487600935
6695519 79 18118147804853078563
6697151 62 16959827530545436319
6698420 124 18271259218030498179
6712543 237 15285360592005000833
7970288 3 9655280536831786957
9896288 288 17969225714754672090

> <PUBCHEM_SHAPE_MULTIPOLES>
591.01
20.78
5.38
1.57
25.35
2.82
-0.56
-32.28
-3.66
-0.29
-1.86
-2.41
-1.08
2.01

> <PUBCHEM_SHAPE_SELFOVERLAP>
1268.701

> <PUBCHEM_SHAPE_VOLUME>
325.2

> <PUBCHEM_COORDINATE_TYPE>
2
5
10

$$$$
