328712
  -OEChem-04052509253D

 95100  0     1  0  0  0  0  0999 V2000
    1.6366   -3.3697   -1.7011 O   0  0  0  0  0  0  0  0  0  0  0  0
   -5.0261   -0.7657    0.2888 O   0  0  0  0  0  0  0  0  0  0  0  0
    3.6223    3.4995   -0.4812 O   0  0  0  0  0  0  0  0  0  0  0  0
    4.7634    3.3929    1.4891 O   0  0  0  0  0  0  0  0  0  0  0  0
   -5.5992    0.2794    2.2471 O   0  0  0  0  0  0  0  0  0  0  0  0
   -9.8999    2.5614   -1.8393 O   0  0  0  0  0  0  0  0  0  0  0  0
    1.6929   -1.5525   -0.0334 C   0  0  2  0  0  0  0  0  0  0  0  0
    0.7495   -0.4825    0.6489 C   0  0  1  0  0  0  0  0  0  0  0  0
   -0.7628   -0.8917    0.9597 C   0  0  2  0  0  0  0  0  0  0  0  0
    3.0381   -0.7599   -0.5824 C   0  0  1  0  0  0  0  0  0  0  0  0
   -1.3671   -1.5707   -0.3129 C   0  0  1  0  0  0  0  0  0  0  0  0
    0.9075   -2.2566   -1.1886 C   0  0  2  0  0  0  0  0  0  0  0  0
    3.6410    0.1218    0.5407 C   0  0  0  0  0  0  0  0  0  0  0  0
   -0.4915   -2.7397   -0.7949 C   0  0  0  0  0  0  0  0  0  0  0  0
   -2.9101   -1.9065   -0.2507 C   0  0  0  0  0  0  0  0  0  0  0  0
    5.1185    0.5617    0.4887 C   0  0  1  0  0  0  0  0  0  0  0  0
    6.0506   -0.6001    0.0430 C   0  0  1  0  0  0  0  0  0  0  0  0
    1.4631    0.1926    1.8397 C   0  0  0  0  0  0  0  0  0  0  0  0
    4.0980   -1.7619   -1.1404 C   0  0  0  0  0  0  0  0  0  0  0  0
   -1.5676    0.4246    1.2513 C   0  0  0  0  0  0  0  0  0  0  0  0
    5.5193   -1.2050   -1.2748 C   0  0  0  0  0  0  0  0  0  0  0  0
    2.1207   -2.6380    1.0048 C   0  0  0  0  0  0  0  0  0  0  0  0
   -3.6613   -0.9085    0.6830 C   0  0  1  0  0  0  0  0  0  0  0  0
    2.9048    0.5116    1.6000 C   0  0  0  0  0  0  0  0  0  0  0  0
   -0.8969   -1.7969    2.2101 C   0  0  0  0  0  0  0  0  0  0  0  0
   -2.9977    0.4610    0.7064 C   0  0  0  0  0  0  0  0  0  0  0  0
    2.6800    0.1975   -1.7599 C   0  0  0  0  0  0  0  0  0  0  0  0
    5.3230    1.8792   -0.3185 C   0  0  2  0  0  0  0  0  0  0  0  0
    7.5070   -0.1080   -0.1435 C   0  0  0  0  0  0  0  0  0  0  0  0
    6.8050    2.2905   -0.4329 C   0  0  1  0  0  0  0  0  0  0  0  0
   -3.2102   -3.3420    0.2358 C   0  0  0  0  0  0  0  0  0  0  0  0
   -3.4742   -1.8137   -1.6970 C   0  0  0  0  0  0  0  0  0  0  0  0
    7.6394    1.1410   -1.0008 C   0  0  0  0  0  0  0  0  0  0  0  0
    6.1062   -1.6933    1.1422 C   0  0  0  0  0  0  0  0  0  0  0  0
    4.5650    2.9938    0.3513 C   0  0  0  0  0  0  0  0  0  0  0  0
    6.9873    3.5306   -1.3178 C   0  0  0  0  0  0  0  0  0  0  0  0
   -5.7893    0.0793    1.0519 C   0  0  0  0  0  0  0  0  0  0  0  0
   -6.8644    0.7271    0.2958 C   0  0  0  0  0  0  0  0  0  0  0  0
   -7.7195    1.6120    0.9410 C   0  0  0  0  0  0  0  0  0  0  0  0
   -7.0164    0.4501   -1.0573 C   0  0  0  0  0  0  0  0  0  0  0  0
   -8.7428    2.2296    0.2216 C   0  0  0  0  0  0  0  0  0  0  0  0
   -8.0396    1.0679   -1.7765 C   0  0  0  0  0  0  0  0  0  0  0  0
   -8.9028    1.9576   -1.1370 C   0  0  0  0  0  0  0  0  0  0  0  0
    0.6372    0.3063   -0.1073 H   0  0  0  0  0  0  0  0  0  0  0  0
   -1.2781   -0.8040   -1.1008 H   0  0  0  0  0  0  0  0  0  0  0  0
    0.7624   -1.5724   -2.0263 H   0  0  0  0  0  0  0  0  0  0  0  0
   -0.4304   -3.5404   -0.0509 H   0  0  0  0  0  0  0  0  0  0  0  0
   -0.9371   -3.2126   -1.6787 H   0  0  0  0  0  0  0  0  0  0  0  0
    5.4244    0.7977    1.5211 H   0  0  0  0  0  0  0  0  0  0  0  0
    1.4313   -0.4343    2.7346 H   0  0  0  0  0  0  0  0  0  0  0  0
    0.9499    1.1271    2.0938 H   0  0  0  0  0  0  0  0  0  0  0  0
    3.7867   -2.1162   -2.1312 H   0  0  0  0  0  0  0  0  0  0  0  0
    4.1729   -2.6596   -0.5265 H   0  0  0  0  0  0  0  0  0  0  0  0
   -1.0544    1.2981    0.8297 H   0  0  0  0  0  0  0  0  0  0  0  0
   -1.5953    0.6047    2.3343 H   0  0  0  0  0  0  0  0  0  0  0  0
    6.1792   -2.0193   -1.6019 H   0  0  0  0  0  0  0  0  0  0  0  0
    5.5412   -0.4652   -2.0818 H   0  0  0  0  0  0  0  0  0  0  0  0
    2.7141   -3.4426    0.5648 H   0  0  0  0  0  0  0  0  0  0  0  0
    2.7138   -2.2272    1.8257 H   0  0  0  0  0  0  0  0  0  0  0  0
    1.2688   -3.1419    1.4548 H   0  0  0  0  0  0  0  0  0  0  0  0
   -3.6779   -1.3109    1.7014 H   0  0  0  0  0  0  0  0  0  0  0  0
    3.3702    1.1077    2.3821 H   0  0  0  0  0  0  0  0  0  0  0  0
   -0.6154   -2.8323    2.0229 H   0  0  0  0  0  0  0  0  0  0  0  0
   -0.3041   -1.4373    3.0536 H   0  0  0  0  0  0  0  0  0  0  0  0
   -1.9198   -1.8331    2.5896 H   0  0  0  0  0  0  0  0  0  0  0  0
   -3.5552    1.2033    1.2862 H   0  0  0  0  0  0  0  0  0  0  0  0
   -2.9863    0.8687   -0.3136 H   0  0  0  0  0  0  0  0  0  0  0  0
    2.0514    1.0368   -1.4487 H   0  0  0  0  0  0  0  0  0  0  0  0
    3.5670    0.6290   -2.2262 H   0  0  0  0  0  0  0  0  0  0  0  0
    2.1782   -0.3178   -2.5816 H   0  0  0  0  0  0  0  0  0  0  0  0
    4.9455    1.7616   -1.3361 H   0  0  0  0  0  0  0  0  0  0  0  0
    8.1206   -0.9069   -0.5793 H   0  0  0  0  0  0  0  0  0  0  0  0
    7.9476    0.1114    0.8388 H   0  0  0  0  0  0  0  0  0  0  0  0
    7.1911    2.5385    0.5656 H   0  0  0  0  0  0  0  0  0  0  0  0
   -2.8165   -4.0978   -0.4521 H   0  0  0  0  0  0  0  0  0  0  0  0
   -4.2913   -3.5114    0.3080 H   0  0  0  0  0  0  0  0  0  0  0  0
   -2.7867   -3.5386    1.2238 H   0  0  0  0  0  0  0  0  0  0  0  0
   -3.4091   -0.7912   -2.0848 H   0  0  0  0  0  0  0  0  0  0  0  0
   -4.5251   -2.1213   -1.7433 H   0  0  0  0  0  0  0  0  0  0  0  0
   -2.9268   -2.4643   -2.3867 H   0  0  0  0  0  0  0  0  0  0  0  0
    8.6962    1.4336   -1.0365 H   0  0  0  0  0  0  0  0  0  0  0  0
    7.3442    0.9262   -2.0345 H   0  0  0  0  0  0  0  0  0  0  0  0
    6.7178   -2.5429    0.8175 H   0  0  0  0  0  0  0  0  0  0  0  0
    6.5504   -1.3002    2.0644 H   0  0  0  0  0  0  0  0  0  0  0  0
    5.1201   -2.0795    1.4108 H   0  0  0  0  0  0  0  0  0  0  0  0
    1.5064   -4.1265   -1.1056 H   0  0  0  0  0  0  0  0  0  0  0  0
    6.4832    4.4040   -0.8926 H   0  0  0  0  0  0  0  0  0  0  0  0
    8.0487    3.7838   -1.4149 H   0  0  0  0  0  0  0  0  0  0  0  0
    6.5873    3.3633   -2.3237 H   0  0  0  0  0  0  0  0  0  0  0  0
    3.1145    4.2259   -0.0611 H   0  0  0  0  0  0  0  0  0  0  0  0
   -7.6119    1.8380    1.9982 H   0  0  0  0  0  0  0  0  0  0  0  0
   -6.3653   -0.2352   -1.5912 H   0  0  0  0  0  0  0  0  0  0  0  0
   -9.4085    2.9211    0.7313 H   0  0  0  0  0  0  0  0  0  0  0  0
   -8.1592    0.8527   -2.8349 H   0  0  0  0  0  0  0  0  0  0  0  0
  -10.3988    3.1437   -1.2409 H   0  0  0  0  0  0  0  0  0  0  0  0
  1 12  1  0  0  0  0
  1 86  1  0  0  0  0
  2 23  1  0  0  0  0
  2 37  1  0  0  0  0
  3 35  1  0  0  0  0
  3 90  1  0  0  0  0
  4 35  2  0  0  0  0
  5 37  2  0  0  0  0
  6 43  1  0  0  0  0
  6 95  1  0  0  0  0
  7  8  1  0  0  0  0
  7 10  1  0  0  0  0
  7 12  1  0  0  0  0
  7 22  1  0  0  0  0
  8  9  1  0  0  0  0
  8 18  1  0  0  0  0
  8 44  1  0  0  0  0
  9 11  1  0  0  0  0
  9 20  1  0  0  0  0
  9 25  1  0  0  0  0
 10 13  1  0  0  0  0
 10 19  1  0  0  0  0
 10 27  1  0  0  0  0
 11 14  1  0  0  0  0
 11 15  1  0  0  0  0
 11 45  1  0  0  0  0
 12 14  1  0  0  0  0
 12 46  1  0  0  0  0
 13 16  1  0  0  0  0
 13 24  2  0  0  0  0
 14 47  1  0  0  0  0
 14 48  1  0  0  0  0
 15 23  1  0  0  0  0
 15 31  1  0  0  0  0
 15 32  1  0  0  0  0
 16 17  1  0  0  0  0
 16 28  1  0  0  0  0
 16 49  1  0  0  0  0
 17 21  1  0  0  0  0
 17 29  1  0  0  0  0
 17 34  1  0  0  0  0
 18 24  1  0  0  0  0
 18 50  1  0  0  0  0
 18 51  1  0  0  0  0
 19 21  1  0  0  0  0
 19 52  1  0  0  0  0
 19 53  1  0  0  0  0
 20 26  1  0  0  0  0
 20 54  1  0  0  0  0
 20 55  1  0  0  0  0
 21 56  1  0  0  0  0
 21 57  1  0  0  0  0
 22 58  1  0  0  0  0
 22 59  1  0  0  0  0
 22 60  1  0  0  0  0
 23 26  1  0  0  0  0
 23 61  1  0  0  0  0
 24 62  1  0  0  0  0
 25 63  1  0  0  0  0
 25 64  1  0  0  0  0
 25 65  1  0  0  0  0
 26 66  1  0  0  0  0
 26 67  1  0  0  0  0
 27 68  1  0  0  0  0
 27 69  1  0  0  0  0
 27 70  1  0  0  0  0
 28 30  1  0  0  0  0
 28 35  1  0  0  0  0
 28 71  1  0  0  0  0
 29 33  1  0  0  0  0
 29 72  1  0  0  0  0
 29 73  1  0  0  0  0
 30 33  1  0  0  0  0
 30 36  1  0  0  0  0
 30 74  1  0  0  0  0
 31 75  1  0  0  0  0
 31 76  1  0  0  0  0
 31 77  1  0  0  0  0
 32 78  1  0  0  0  0
 32 79  1  0  0  0  0
 32 80  1  0  0  0  0
 33 81  1  0  0  0  0
 33 82  1  0  0  0  0
 34 83  1  0  0  0  0
 34 84  1  0  0  0  0
 34 85  1  0  0  0  0
 36 87  1  0  0  0  0
 36 88  1  0  0  0  0
 36 89  1  0  0  0  0
 37 38  1  0  0  0  0
 38 39  2  0  0  0  0
 38 40  1  0  0  0  0
 39 41  1  0  0  0  0
 39 91  1  0  0  0  0
 40 42  2  0  0  0  0
 40 92  1  0  0  0  0
 41 43  2  0  0  0  0
 41 93  1  0  0  0  0
 42 43  1  0  0  0  0
 42 94  1  0  0  0  0
M  END
> <PUBCHEM_COMPOUND_CID>
328712

> <PUBCHEM_CONFORMER_RMSD>
1

> <PUBCHEM_CONFORMER_DIVERSEORDER>
1
2
3

> <PUBCHEM_MMFF94_PARTIAL_CHARGES>
30
1 -0.68
10 0.14
12 0.28
13 -0.28
16 0.14
18 0.14
2 -0.43
23 0.28
24 -0.29
28 0.06
3 -0.65
35 0.66
37 0.63
38 0.09
39 -0.15
4 -0.57
40 -0.15
41 -0.15
42 -0.15
43 0.08
5 -0.57
6 -0.53
62 0.15
86 0.4
90 0.5
91 0.15
92 0.15
93 0.15
94 0.15
95 0.45

> <PUBCHEM_EFFECTIVE_ROTOR_COUNT>
6.6

> <PUBCHEM_PHARMACOPHORE_FEATURES>
14
1 1 acceptor
1 1 donor
1 3 acceptor
1 4 acceptor
1 5 acceptor
1 6 donor
3 15 31 32 hydrophobe
3 3 4 35 anion
6 10 13 16 17 19 21 rings
6 16 17 28 29 30 33 rings
6 38 39 40 41 42 43 rings
6 7 8 10 13 18 24 rings
6 7 8 9 11 12 14 rings
6 9 11 15 20 23 26 rings

> <PUBCHEM_HEAVY_ATOM_COUNT>
43

> <PUBCHEM_ATOM_DEF_STEREO_COUNT>
11

> <PUBCHEM_ATOM_UDEF_STEREO_COUNT>
0

> <PUBCHEM_BOND_DEF_STEREO_COUNT>
0

> <PUBCHEM_BOND_UDEF_STEREO_COUNT>
0

> <PUBCHEM_ISOTOPIC_ATOM_COUNT>
0

> <PUBCHEM_COMPONENT_COUNT>
1

> <PUBCHEM_CACTVS_TAUTO_COUNT>
3

> <PUBCHEM_CONFORMER_ID>
0005040800000001

> <PUBCHEM_MMFF94_ENERGY>
186.1427

> <PUBCHEM_FEATURE_SELFOVERLAP>
71.187

> <PUBCHEM_SHAPE_FINGERPRINT>
10280341 67 18199459051712122272
10533779 47 14274019841274649841
10554248 39 18130790036008052630
11181472 205 18263646169217719945
11297010 23 17988647367713744342
11607047 141 17168697515298299954
11607047 74 12894198856093616994
11621639 179 18409449219908227108
12013929 112 18201455679217857668
12120059 9 14764350414861932494
12522641 126 16199602268337588166
12522641 24 17677044634452249698
12539765 74 18186523189388087610
12838862 33 17988914562098255586
13560911 23 16081381799525912073
13782708 43 10231490583251129522
13811026 1 18410015459209653651
14117953 113 18131361787340921910
14931854 50 17346886645495503635
15064981 113 16988846047573133277
15064981 194 18266756838099934329
15082195 135 18060139812426685698
15183329 4 17846785104389847059
15274700 259 18335970983985671589
15276724 80 18336261246011334485
15347590 135 12757144671635525029
15352257 5 9799688199612323761
15392192 104 14562823131519033777
15840311 113 18334016077806274982
16994733 274 18187643652124205273
17134984 74 12535629354032397396
18335252 114 18272089388054065824
18608769 82 9655568609083985869
20105231 36 12252185139195752544
2026 5 11815902254105575021
20715895 44 18272093807480500414
20721686 124 18339359669642017046
21033648 29 16515952761675390986
21792938 703 13254799087722382660
21814621 53 17894642464770349067
22149856 69 14129332949621435590
23559900 14 17917992793288724090
23569943 247 12029582404688407892
23576562 1 17988069111066630493
27425 322 18261392299098273538
3178227 256 10953464011836973857
3383291 50 10159695798758715341
3633792 109 18202008715933142830
4073 2 18115595997084056370
4093350 32 17168422666702188074
4144715 1 18118130392122542075
4169191 19 18342464721096612681
4760202 170 18342733018344149232
504579 68 17346598590819039725
6086070 43 17274821419153004435
9689198 14 17967253096462221825

> <PUBCHEM_SHAPE_MULTIPOLES>
849.7
26.33
3.8
1.81
40.96
1.12
-0.09
25.77
7.75
-2.48
0.89
1.07
-0.09
0.72

> <PUBCHEM_SHAPE_SELFOVERLAP>
1825.652

> <PUBCHEM_SHAPE_VOLUME>
462.4

> <PUBCHEM_COORDINATE_TYPE>
2
5
10

$$$$
