101036739
  -OEChem-04052509182D

126131  0     1  0  0  0  0  0999 V2000
    7.1962   -0.2293    0.0000 O   0  0  0  0  0  0  0  0  0  0  0  0
    8.1962    4.8986    0.0000 O   0  0  0  0  0  0  0  0  0  0  0  0
    9.4895    2.6900    0.0000 O   0  0  0  0  0  0  0  0  0  0  0  0
    4.6438    7.6936    0.0000 O   0  0  0  0  0  0  0  0  0  0  0  0
    5.4641   -0.2293    0.0000 O   0  0  0  0  0  0  0  0  0  0  0  0
    7.1962   -2.2293    0.0000 O   0  0  0  0  0  0  0  0  0  0  0  0
    5.4641   -3.2293    0.0000 O   0  0  0  0  0  0  0  0  0  0  0  0
    3.7320   -2.2293    0.0000 O   0  0  0  0  0  0  0  0  0  0  0  0
    6.3301   -3.7293    0.0000 O   0  0  0  0  0  0  0  0  0  0  0  0
    3.7320   -3.2293    0.0000 O   0  0  0  0  0  0  0  0  0  0  0  0
    2.8660   -6.7293    0.0000 O   0  0  0  0  0  0  0  0  0  0  0  0
    6.3301   -6.7293    0.0000 O   0  0  0  0  0  0  0  0  0  0  0  0
    4.5981   -7.7293    0.0000 O   0  0  0  0  0  0  0  0  0  0  0  0
    7.6962    2.3005    0.0000 C   0  0  1  0  0  0  0  0  0  0  0  0
    6.6962    2.3005    0.0000 C   0  0  2  0  0  0  0  0  0  0  0  0
    6.1962    3.1665    0.0000 C   0  0  1  0  0  0  0  0  0  0  0  0
    6.6962    4.0325    0.0000 C   0  0  2  0  0  0  0  0  0  0  0  0
    8.0009    1.3543    0.0000 C   0  0  2  0  0  0  0  0  0  0  0  0
    8.1962    3.1665    0.0000 C   0  0  0  0  0  0  0  0  0  0  0  0
    6.3914    1.3543    0.0000 C   0  0  0  0  0  0  0  0  0  0  0  0
    7.1962    0.7707    0.0000 C   0  0  2  0  0  0  0  0  0  0  0  0
    7.6962    4.0325    0.0000 C   0  0  1  0  0  0  0  0  0  0  0  0
    6.1893    4.9426    0.0000 C   0  0  2  0  0  0  0  0  0  0  0  0
    5.1546    3.1505    0.0000 C   0  0  0  0  0  0  0  0  0  0  0  0
    8.9514    1.0436    0.0000 C   0  0  1  0  0  0  0  0  0  0  0  0
    8.6962    2.3005    0.0000 C   0  0  0  0  0  0  0  0  0  0  0  0
    5.1477    4.9506    0.0000 C   0  0  0  0  0  0  0  0  0  0  0  0
    6.7534    5.8694    0.0000 C   0  0  0  0  0  0  0  0  0  0  0  0
    4.6269    4.0485    0.0000 C   0  0  0  0  0  0  0  0  0  0  0  0
    7.1893    4.9348    0.0000 C   0  0  0  0  0  0  0  0  0  0  0  0
    4.5980    5.8860    0.0000 C   0  0  0  0  0  0  0  0  0  0  0  0
    9.6957    1.7115    0.0000 C   0  0  2  0  0  0  0  0  0  0  0  0
    6.2254    6.8173    0.0000 C   0  0  0  0  0  0  0  0  0  0  0  0
    9.1576    0.0651    0.0000 C   0  0  0  0  0  0  0  0  0  0  0  0
    5.1405    6.8256    0.0000 C   0  0  2  0  0  0  0  0  0  0  0  0
    6.3301   -0.7293    0.0000 C   0  0  2  0  0  0  0  0  0  0  0  0
   10.6462    1.4008    0.0000 C   0  0  0  0  0  0  0  0  0  0  0  0
    6.3301   -1.7293    0.0000 C   0  0  1  0  0  0  0  0  0  0  0  0
   11.3905    2.0686    0.0000 C   0  0  0  0  0  0  0  0  0  0  0  0
    5.4641   -2.2293    0.0000 C   0  0  1  0  0  0  0  0  0  0  0  0
    4.5981   -0.7293    0.0000 C   0  0  2  0  0  0  0  0  0  0  0  0
    4.5981   -1.7293    0.0000 C   0  0  2  0  0  0  0  0  0  0  0  0
   12.3410    1.7580    0.0000 C   0  0  0  0  0  0  0  0  0  0  0  0
    3.7320   -0.2293    0.0000 C   0  0  0  0  0  0  0  0  0  0  0  0
   13.0854    2.4258    0.0000 C   0  0  0  0  0  0  0  0  0  0  0  0
   12.5473    0.7795    0.0000 C   0  0  0  0  0  0  0  0  0  0  0  0
    7.1962   -3.2293    0.0000 C   0  0  0  0  0  0  0  0  0  0  0  0
    4.5981   -3.7293    0.0000 C   0  0  0  0  0  0  0  0  0  0  0  0
    8.0622   -3.7293    0.0000 C   0  0  0  0  0  0  0  0  0  0  0  0
    4.5981   -4.7293    0.0000 C   0  0  0  0  0  0  0  0  0  0  0  0
    5.4641   -5.2293    0.0000 C   0  0  0  0  0  0  0  0  0  0  0  0
    3.7320   -5.2293    0.0000 C   0  0  0  0  0  0  0  0  0  0  0  0
    3.7320   -6.2293    0.0000 C   0  0  0  0  0  0  0  0  0  0  0  0
    5.4641   -6.2293    0.0000 C   0  0  0  0  0  0  0  0  0  0  0  0
    4.5981   -6.7293    0.0000 C   0  0  0  0  0  0  0  0  0  0  0  0
    2.0000   -6.2293    0.0000 C   0  0  0  0  0  0  0  0  0  0  0  0
    6.3301   -7.7293    0.0000 C   0  0  0  0  0  0  0  0  0  0  0  0
    3.7320   -8.2293    0.0000 C   0  0  0  0  0  0  0  0  0  0  0  0
    5.8509    2.2106    0.0000 H   0  0  0  0  0  0  0  0  0  0  0  0
    5.7768    2.4272    0.0000 H   0  0  0  0  0  0  0  0  0  0  0  0
    7.1212    3.2964    0.0000 H   0  0  0  0  0  0  0  0  0  0  0  0
    8.6032    1.9540    0.0000 H   0  0  0  0  0  0  0  0  0  0  0  0
    8.6711    2.7680    0.0000 H   0  0  0  0  0  0  0  0  0  0  0  0
    8.6711    3.5651    0.0000 H   0  0  0  0  0  0  0  0  0  0  0  0
    5.8245    1.6053    0.0000 H   0  0  0  0  0  0  0  0  0  0  0  0
    6.0822    0.8169    0.0000 H   0  0  0  0  0  0  0  0  0  0  0  0
    7.7485    0.4890    0.0000 H   0  0  0  0  0  0  0  0  0  0  0  0
    7.3862    4.5695    0.0000 H   0  0  0  0  0  0  0  0  0  0  0  0
    4.5742    2.9324    0.0000 H   0  0  0  0  0  0  0  0  0  0  0  0
    5.2701    2.5413    0.0000 H   0  0  0  0  0  0  0  0  0  0  0  0
    9.5407    0.8510    0.0000 H   0  0  0  0  0  0  0  0  0  0  0  0
    8.6962    1.6805    0.0000 H   0  0  0  0  0  0  0  0  0  0  0  0
    9.3162    2.3005    0.0000 H   0  0  0  0  0  0  0  0  0  0  0  0
    8.6962    2.9205    0.0000 H   0  0  0  0  0  0  0  0  0  0  0  0
    7.2200    5.4612    0.0000 H   0  0  0  0  0  0  0  0  0  0  0  0
    7.2354    6.2593    0.0000 H   0  0  0  0  0  0  0  0  0  0  0  0
    4.0069    4.0461    0.0000 H   0  0  0  0  0  0  0  0  0  0  0  0
    7.1845    4.3149    0.0000 H   0  0  0  0  0  0  0  0  0  0  0  0
    7.8093    4.9301    0.0000 H   0  0  0  0  0  0  0  0  0  0  0  0
    7.1941    5.5548    0.0000 H   0  0  0  0  0  0  0  0  0  0  0  0
    4.1220    6.2833    0.0000 H   0  0  0  0  0  0  0  0  0  0  0  0
    4.1251    5.4850    0.0000 H   0  0  0  0  0  0  0  0  0  0  0  0
    9.1064    1.9041    0.0000 H   0  0  0  0  0  0  0  0  0  0  0  0
    6.8107    7.0218    0.0000 H   0  0  0  0  0  0  0  0  0  0  0  0
    6.1241    7.4289    0.0000 H   0  0  0  0  0  0  0  0  0  0  0  0
    8.5510   -0.0627    0.0000 H   0  0  0  0  0  0  0  0  0  0  0  0
    9.2855   -0.5416    0.0000 H   0  0  0  0  0  0  0  0  0  0  0  0
    9.7643    0.1930    0.0000 H   0  0  0  0  0  0  0  0  0  0  0  0
    4.5205    6.8268    0.0000 H   0  0  0  0  0  0  0  0  0  0  0  0
    8.8162    4.8986    0.0000 H   0  0  0  0  0  0  0  0  0  0  0  0
    6.3301   -0.1093    0.0000 H   0  0  0  0  0  0  0  0  0  0  0  0
   10.3542    0.8539    0.0000 H   0  0  0  0  0  0  0  0  0  0  0  0
   11.1341    1.0183    0.0000 H   0  0  0  0  0  0  0  0  0  0  0  0
    6.8671   -1.4193    0.0000 H   0  0  0  0  0  0  0  0  0  0  0  0
    9.9510    3.1040    0.0000 H   0  0  0  0  0  0  0  0  0  0  0  0
   11.6825    2.6156    0.0000 H   0  0  0  0  0  0  0  0  0  0  0  0
   10.9026    2.4512    0.0000 H   0  0  0  0  0  0  0  0  0  0  0  0
    4.9559    8.2293    0.0000 H   0  0  0  0  0  0  0  0  0  0  0  0
    4.9272   -2.5393    0.0000 H   0  0  0  0  0  0  0  0  0  0  0  0
    4.5981   -0.1093    0.0000 H   0  0  0  0  0  0  0  0  0  0  0  0
    4.0611   -1.4193    0.0000 H   0  0  0  0  0  0  0  0  0  0  0  0
   12.2132    2.3647    0.0000 H   0  0  0  0  0  0  0  0  0  0  0  0
    4.0420    0.3076    0.0000 H   0  0  0  0  0  0  0  0  0  0  0  0
    3.1951    0.0807    0.0000 H   0  0  0  0  0  0  0  0  0  0  0  0
    3.4220   -0.7663    0.0000 H   0  0  0  0  0  0  0  0  0  0  0  0
   13.4994    1.9644    0.0000 H   0  0  0  0  0  0  0  0  0  0  0  0
   13.5468    2.8399    0.0000 H   0  0  0  0  0  0  0  0  0  0  0  0
   12.6713    2.8873    0.0000 H   0  0  0  0  0  0  0  0  0  0  0  0
   11.9406    0.6516    0.0000 H   0  0  0  0  0  0  0  0  0  0  0  0
   12.6751    0.1728    0.0000 H   0  0  0  0  0  0  0  0  0  0  0  0
   13.1539    0.9073    0.0000 H   0  0  0  0  0  0  0  0  0  0  0  0
    3.1951   -1.9193    0.0000 H   0  0  0  0  0  0  0  0  0  0  0  0
    7.7522   -4.2663    0.0000 H   0  0  0  0  0  0  0  0  0  0  0  0
    8.5991   -4.0393    0.0000 H   0  0  0  0  0  0  0  0  0  0  0  0
    8.3722   -3.1924    0.0000 H   0  0  0  0  0  0  0  0  0  0  0  0
    6.0010   -4.9193    0.0000 H   0  0  0  0  0  0  0  0  0  0  0  0
    3.1951   -4.9193    0.0000 H   0  0  0  0  0  0  0  0  0  0  0  0
    2.3100   -5.6924    0.0000 H   0  0  0  0  0  0  0  0  0  0  0  0
    1.4631   -5.9193    0.0000 H   0  0  0  0  0  0  0  0  0  0  0  0
    1.6900   -6.7663    0.0000 H   0  0  0  0  0  0  0  0  0  0  0  0
    5.7101   -7.7293    0.0000 H   0  0  0  0  0  0  0  0  0  0  0  0
    6.3301   -8.3493    0.0000 H   0  0  0  0  0  0  0  0  0  0  0  0
    6.9501   -7.7293    0.0000 H   0  0  0  0  0  0  0  0  0  0  0  0
    3.4220   -7.6924    0.0000 H   0  0  0  0  0  0  0  0  0  0  0  0
    3.1951   -8.5393    0.0000 H   0  0  0  0  0  0  0  0  0  0  0  0
    4.0420   -8.7663    0.0000 H   0  0  0  0  0  0  0  0  0  0  0  0
 21  1  1  1  0  0  0
 36  1  1  1  0  0  0
 22  2  1  6  0  0  0
  2 90  1  0  0  0  0
 32  3  1  1  0  0  0
  3 95  1  0  0  0  0
 35  4  1  1  0  0  0
  4 98  1  0  0  0  0
  5 36  1  0  0  0  0
  5 41  1  0  0  0  0
 38  6  1  6  0  0  0
  6 47  1  0  0  0  0
 40  7  1  6  0  0  0
  7 48  1  0  0  0  0
 42  8  1  1  0  0  0
  8112  1  0  0  0  0
  9 47  2  0  0  0  0
 10 48  2  0  0  0  0
 11 53  1  0  0  0  0
 11 56  1  0  0  0  0
 12 54  1  0  0  0  0
 12 57  1  0  0  0  0
 13 55  1  0  0  0  0
 13 58  1  0  0  0  0
 14 15  1  0  0  0  0
 14 18  1  0  0  0  0
 14 19  1  0  0  0  0
 14 26  1  1  0  0  0
 15 16  1  0  0  0  0
 15 20  1  0  0  0  0
 15 59  1  6  0  0  0
 16 17  1  0  0  0  0
 16 24  1  0  0  0  0
 16 60  1  1  0  0  0
 17 22  1  0  0  0  0
 17 23  1  0  0  0  0
 17 61  1  6  0  0  0
 18 21  1  0  0  0  0
 18 25  1  0  0  0  0
 18 62  1  6  0  0  0
 19 22  1  0  0  0  0
 19 63  1  0  0  0  0
 19 64  1  0  0  0  0
 20 21  1  0  0  0  0
 20 65  1  0  0  0  0
 20 66  1  0  0  0  0
 21 67  1  0  0  0  0
 22 68  1  0  0  0  0
 23 27  1  0  0  0  0
 23 28  1  0  0  0  0
 23 30  1  1  0  0  0
 24 29  1  0  0  0  0
 24 69  1  0  0  0  0
 24 70  1  0  0  0  0
 25 32  1  0  0  0  0
 25 34  1  1  0  0  0
 25 71  1  0  0  0  0
 26 72  1  0  0  0  0
 26 73  1  0  0  0  0
 26 74  1  0  0  0  0
 27 29  2  0  0  0  0
 27 31  1  0  0  0  0
 28 33  1  0  0  0  0
 28 75  1  0  0  0  0
 28 76  1  0  0  0  0
 29 77  1  0  0  0  0
 30 78  1  0  0  0  0
 30 79  1  0  0  0  0
 30 80  1  0  0  0  0
 31 35  1  0  0  0  0
 31 81  1  0  0  0  0
 31 82  1  0  0  0  0
 32 37  1  0  0  0  0
 32 83  1  0  0  0  0
 33 35  1  0  0  0  0
 33 84  1  0  0  0  0
 33 85  1  0  0  0  0
 34 86  1  0  0  0  0
 34 87  1  0  0  0  0
 34 88  1  0  0  0  0
 35 89  1  0  0  0  0
 36 38  1  0  0  0  0
 36 91  1  0  0  0  0
 37 39  1  0  0  0  0
 37 92  1  0  0  0  0
 37 93  1  0  0  0  0
 38 40  1  0  0  0  0
 38 94  1  0  0  0  0
 39 43  1  0  0  0  0
 39 96  1  0  0  0  0
 39 97  1  0  0  0  0
 40 42  1  0  0  0  0
 40 99  1  0  0  0  0
 41 42  1  0  0  0  0
 41 44  1  6  0  0  0
 41100  1  0  0  0  0
 42101  1  0  0  0  0
 43 45  1  0  0  0  0
 43 46  1  0  0  0  0
 43102  1  0  0  0  0
 44103  1  0  0  0  0
 44104  1  0  0  0  0
 44105  1  0  0  0  0
 45106  1  0  0  0  0
 45107  1  0  0  0  0
 45108  1  0  0  0  0
 46109  1  0  0  0  0
 46110  1  0  0  0  0
 46111  1  0  0  0  0
 47 49  1  0  0  0  0
 48 50  1  0  0  0  0
 49113  1  0  0  0  0
 49114  1  0  0  0  0
 49115  1  0  0  0  0
 50 51  2  0  0  0  0
 50 52  1  0  0  0  0
 51 54  1  0  0  0  0
 51116  1  0  0  0  0
 52 53  2  0  0  0  0
 52117  1  0  0  0  0
 53 55  1  0  0  0  0
 54 55  2  0  0  0  0
 56118  1  0  0  0  0
 56119  1  0  0  0  0
 56120  1  0  0  0  0
 57121  1  0  0  0  0
 57122  1  0  0  0  0
 57123  1  0  0  0  0
 58124  1  0  0  0  0
 58125  1  0  0  0  0
 58126  1  0  0  0  0
M  END
> <PUBCHEM_COMPOUND_CID>
101036739

> <PUBCHEM_COMPOUND_CANONICALIZED>
1

> <PUBCHEM_CACTVS_COMPLEXITY>
1440

> <PUBCHEM_CACTVS_HBOND_ACCEPTOR>
13

> <PUBCHEM_CACTVS_HBOND_DONOR>
4

> <PUBCHEM_CACTVS_ROTATABLE_BOND>
15

> <PUBCHEM_CACTVS_SUBSKEYS>
AAADcfB8PAAAAAAAAAAAAAAAAAAAAYAAAAA0YMECAAAAAGCBAAAAGgAACAAADxSwmAMyDoAABgCIAiDSCAACCAAkIAAAiAEGiMgdNzKENRqicSIlwBUPqYfK7PzPoAABCAAAQADAAAYQADCAAYAADAAAAA==

> <PUBCHEM_IUPAC_OPENEYE_NAME>
[(2R,3R,4R,5S,6S)-3-acetoxy-2-[[(3S,8S,9S,10R,11R,13S,14S,16S,17R)-3,11-dihydroxy-17-[(1S,2S)-2-hydroxy-1,5-dimethyl-hexyl]-10,13-dimethyl-2,3,4,7,8,9,11,12,14,15,16,17-dodecahydro-1H-cyclopenta[a]phenanthren-16-yl]oxy]-5-hydroxy-6-methyl-tetrahydropyran-4-yl] 3,4,5-trimethoxybenzoate

> <PUBCHEM_IUPAC_CAS_NAME>
3,4,5-trimethoxybenzoic acid [(2R,3R,4R,5S,6S)-3-acetyloxy-2-[[(3S,8S,9S,10R,11R,13S,14S,16S,17R)-3,11-dihydroxy-17-[(2S,3S)-3-hydroxy-6-methylheptan-2-yl]-10,13-dimethyl-2,3,4,7,8,9,11,12,14,15,16,17-dodecahydro-1H-cyclopenta[a]phenanthren-16-yl]oxy]-5-hydroxy-6-methyl-4-oxanyl] ester

> <PUBCHEM_IUPAC_NAME_MARKUP>
[(2<I>R</I>,3<I>R</I>,4<I>R</I>,5<I>S</I>,6<I>S</I>)-3-acetyloxy-2-[[(3<I>S</I>,8<I>S</I>,9<I>S</I>,10<I>R</I>,11<I>R</I>,13<I>S</I>,14<I>S</I>,16<I>S</I>,17<I>R</I>)-3,11-dihydroxy-17-[(2<I>S</I>,3<I>S</I>)-3-hydroxy-6-methylheptan-2-yl]-10,13-dimethyl-2,3,4,7,8,9,11,12,14,15,16,17-dodecahydro-1<I>H</I>-cyclopenta[a]phenanthren-16-yl]oxy]-5-hydroxy-6-methyloxan-4-yl] 3,4,5-trimethoxybenzoate

> <PUBCHEM_IUPAC_NAME>
[(2R,3R,4R,5S,6S)-3-acetyloxy-2-[[(3S,8S,9S,10R,11R,13S,14S,16S,17R)-3,11-dihydroxy-17-[(2S,3S)-3-hydroxy-6-methylheptan-2-yl]-10,13-dimethyl-2,3,4,7,8,9,11,12,14,15,16,17-dodecahydro-1H-cyclopenta[a]phenanthren-16-yl]oxy]-5-hydroxy-6-methyloxan-4-yl] 3,4,5-trimethoxybenzoate

> <PUBCHEM_IUPAC_SYSTEMATIC_NAME>
[(2R,3R,4R,5S,6S)-3-acetyloxy-2-[[(3S,8S,9S,10R,11R,13S,14S,16S,17R)-10,13-dimethyl-17-[(2S,3S)-6-methyl-3-oxidanyl-heptan-2-yl]-3,11-bis(oxidanyl)-2,3,4,7,8,9,11,12,14,15,16,17-dodecahydro-1H-cyclopenta[a]phenanthren-16-yl]oxy]-6-methyl-5-oxidanyl-oxan-4-yl] 3,4,5-trimethoxybenzoate

> <PUBCHEM_IUPAC_TRADITIONAL_NAME>
3,4,5-trimethoxybenzoic acid [(2R,3R,4R,5S,6S)-3-acetoxy-2-[[(3S,8S,9S,10R,11R,13S,14S,16S,17R)-3,11-dihydroxy-17-[(1S,2S)-2-hydroxy-1,5-dimethyl-hexyl]-10,13-dimethyl-2,3,4,7,8,9,11,12,14,15,16,17-dodecahydro-1H-cyclopenta[a]phenanthren-16-yl]oxy]-5-hydroxy-6-methyl-tetrahydropyran-4-yl] ester

> <PUBCHEM_IUPAC_INCHI>
InChI=1S/C45H68O13/c1-22(2)11-14-31(48)23(3)36-33(20-30-29-13-12-27-19-28(47)15-16-44(27,6)37(29)32(49)21-45(30,36)7)57-43-41(56-25(5)46)40(38(50)24(4)55-43)58-42(51)26-17-34(52-8)39(54-10)35(18-26)53-9/h12,17-18,22-24,28-33,36-38,40-41,43,47-50H,11,13-16,19-21H2,1-10H3/t23-,24+,28+,29+,30+,31+,32-,33+,36+,37-,38+,40-,41-,43+,44+,45+/m1/s1

> <PUBCHEM_IUPAC_INCHIKEY>
ZTZXQSZVCACSSK-SYEMPAQXSA-N

> <PUBCHEM_XLOGP3_AA>
6

> <PUBCHEM_EXACT_MASS>
816.46599222

> <PUBCHEM_MOLECULAR_FORMULA>
C45H68O13

> <PUBCHEM_MOLECULAR_WEIGHT>
817.0

> <PUBCHEM_SMILES>
C[C@H]1[C@@H]([C@H]([C@H]([C@@H](O1)O[C@H]2C[C@H]3[C@@H]4CC=C5C[C@H](CC[C@@]5([C@H]4[C@@H](C[C@@]3([C@H]2[C@H](C)[C@H](CCC(C)C)O)C)O)C)O)OC(=O)C)OC(=O)C6=CC(=C(C(=C6)OC)OC)OC)O

> <PUBCHEM_OPENEYE_CAN_SMILES>
CC1C(C(C(C(O1)OC2CC3C4CC=C5CC(CCC5(C4C(CC3(C2C(C)C(CCC(C)C)O)C)O)C)O)OC(=O)C)OC(=O)C6=CC(=C(C(=C6)OC)OC)OC)O

> <PUBCHEM_OPENEYE_ISO_SMILES>
C[C@H]1[C@@H]([C@H]([C@H]([C@@H](O1)O[C@H]2C[C@H]3[C@@H]4CC=C5C[C@H](CC[C@@]5([C@H]4[C@@H](C[C@@]3([C@H]2[C@H](C)[C@H](CCC(C)C)O)C)O)C)O)OC(=O)C)OC(=O)C6=CC(=C(C(=C6)OC)OC)OC)O

> <PUBCHEM_CACTVS_TPSA>
180

> <PUBCHEM_MONOISOTOPIC_WEIGHT>
816.46599222

> <PUBCHEM_TOTAL_CHARGE>
0

> <PUBCHEM_HEAVY_ATOM_COUNT>
58

> <PUBCHEM_ATOM_DEF_STEREO_COUNT>
16

> <PUBCHEM_ATOM_UDEF_STEREO_COUNT>
0

> <PUBCHEM_BOND_DEF_STEREO_COUNT>
0

> <PUBCHEM_BOND_UDEF_STEREO_COUNT>
0

> <PUBCHEM_ISOTOPIC_ATOM_COUNT>
0

> <PUBCHEM_COMPONENT_COUNT>
1

> <PUBCHEM_CACTVS_TAUTO_COUNT>
-1

> <PUBCHEM_COORDINATE_TYPE>
1
5
255

> <PUBCHEM_BONDANNOTATIONS>
21  1  5
36  1  5
14  26  5
15  59  6
16  60  5
17  61  6
18  62  6
22  2  6
23  30  5
25  34  5
32  3  5
35  4  5
41  44  6
50  51  8
50  52  8
51  54  8
52  53  8
53  55  8
54  55  8
38  6  6
40  7  6
42  8  5

$$$$
